
Note: No compatibility mode selected!


Circuit: tb001-ga144-test-bringup-spi-enabled

Doing analysis at TEMP = 27.000000 and TNOM = 27.000000

Using SPARSE 1.3 as Direct Linear Solver

Initial Transient Solution
--------------------------

Node                                   Voltage
----                                   -------
vin_src                                    1.8
vdrv                                       3.3
bootmode                                     0
enable_hold                                3.3
reset_assert                               3.3
vin_main                               1.79888
vmaster                                1.79799
vu2                                    1.79754
vu1                                    1.79785
vu3                                    1.79792
reset_hold                         8.23361e-05
gcore                              0.000578734
vcore                             -3.29893e-42
gio                                0.000578734
vio                               -3.23436e-40
gan                                0.000578734
van                               -1.36398e-39
vresetassert#branch                          0
venablehold#branch                           0
vbootsel#branch                              0
vgatedrv#branch                   -0.000210601
vmain1p8#branch                     -0.0223309


No. of Data Rows : 624
                      tb001-ga144-test-bringup-spi-enabled
                      Transient Analysis  Sat Jun 13 17:42:20  2026
--------------------------------------------------------------------------------
Index   time            v(vin_main)     v(vmaster)      v(vu2)          
--------------------------------------------------------------------------------
0	0.000000e+00	1.798883e+00	1.797990e+00	1.797541e+00	
1	2.000000e-07	1.798883e+00	1.797990e+00	1.797541e+00	
2	4.000000e-07	1.798883e+00	1.797990e+00	1.797541e+00	
3	8.000000e-07	1.798883e+00	1.797990e+00	1.797541e+00	
4	1.600000e-06	1.798883e+00	1.797990e+00	1.797541e+00	
5	3.200000e-06	1.798883e+00	1.797990e+00	1.797541e+00	
6	6.400000e-06	1.798883e+00	1.797990e+00	1.797541e+00	
7	1.280000e-05	1.798883e+00	1.797990e+00	1.797541e+00	
8	2.560000e-05	1.798883e+00	1.797990e+00	1.797541e+00	
9	4.560000e-05	1.798883e+00	1.797990e+00	1.797541e+00	
10	6.560000e-05	1.798883e+00	1.797990e+00	1.797541e+00	
11	8.560000e-05	1.798883e+00	1.797990e+00	1.797541e+00	
12	1.056000e-04	1.798883e+00	1.797990e+00	1.797541e+00	
13	1.256000e-04	1.798883e+00	1.797990e+00	1.797541e+00	
14	1.456000e-04	1.798883e+00	1.797990e+00	1.797541e+00	
15	1.656000e-04	1.798883e+00	1.797990e+00	1.797541e+00	
16	1.856000e-04	1.798883e+00	1.797990e+00	1.797541e+00	
17	2.056000e-04	1.798883e+00	1.797990e+00	1.797541e+00	
18	2.256000e-04	1.798883e+00	1.797990e+00	1.797541e+00	
19	2.456000e-04	1.798883e+00	1.797990e+00	1.797541e+00	
20	2.656000e-04	1.798883e+00	1.797990e+00	1.797541e+00	
21	2.856000e-04	1.798883e+00	1.797990e+00	1.797541e+00	
22	3.056000e-04	1.798883e+00	1.797990e+00	1.797541e+00	
23	3.256000e-04	1.798883e+00	1.797990e+00	1.797541e+00	
24	3.456000e-04	1.798883e+00	1.797990e+00	1.797541e+00	
25	3.656000e-04	1.798883e+00	1.797990e+00	1.797541e+00	
26	3.856000e-04	1.798883e+00	1.797990e+00	1.797541e+00	
27	4.056000e-04	1.798883e+00	1.797990e+00	1.797541e+00	
28	4.256000e-04	1.798883e+00	1.797990e+00	1.797541e+00	
29	4.456000e-04	1.798883e+00	1.797990e+00	1.797541e+00	
30	4.656000e-04	1.798883e+00	1.797990e+00	1.797541e+00	
31	4.856000e-04	1.798883e+00	1.797990e+00	1.797541e+00	
32	5.056000e-04	1.798883e+00	1.797990e+00	1.797541e+00	
33	5.256000e-04	1.798883e+00	1.797990e+00	1.797541e+00	
34	5.456000e-04	1.798883e+00	1.797990e+00	1.797541e+00	
35	5.656000e-04	1.798883e+00	1.797990e+00	1.797541e+00	
36	5.856000e-04	1.798883e+00	1.797990e+00	1.797541e+00	
37	6.056000e-04	1.798883e+00	1.797990e+00	1.797541e+00	
38	6.256000e-04	1.798883e+00	1.797990e+00	1.797541e+00	
39	6.456000e-04	1.798883e+00	1.797990e+00	1.797541e+00	
40	6.656000e-04	1.798883e+00	1.797990e+00	1.797541e+00	
41	6.856000e-04	1.798883e+00	1.797990e+00	1.797541e+00	
42	7.056000e-04	1.798883e+00	1.797990e+00	1.797541e+00	
43	7.256000e-04	1.798883e+00	1.797990e+00	1.797541e+00	
44	7.456000e-04	1.798883e+00	1.797990e+00	1.797541e+00	
45	7.656000e-04	1.798883e+00	1.797990e+00	1.797541e+00	
46	7.856000e-04	1.798883e+00	1.797990e+00	1.797541e+00	
47	8.056000e-04	1.798883e+00	1.797990e+00	1.797541e+00	
48	8.256000e-04	1.798883e+00	1.797990e+00	1.797541e+00	
49	8.456000e-04	1.798883e+00	1.797990e+00	1.797541e+00	
50	8.656000e-04	1.798883e+00	1.797990e+00	1.797541e+00	
51	8.856000e-04	1.798883e+00	1.797990e+00	1.797541e+00	
52	9.056000e-04	1.798883e+00	1.797990e+00	1.797541e+00	
53	9.256000e-04	1.798883e+00	1.797990e+00	1.797541e+00	
54	9.456000e-04	1.798883e+00	1.797990e+00	1.797541e+00	

Index   time            v(vin_main)     v(vmaster)      v(vu2)          
--------------------------------------------------------------------------------
55	9.656000e-04	1.798883e+00	1.797990e+00	1.797541e+00	
56	9.856000e-04	1.798883e+00	1.797990e+00	1.797541e+00	
57	1.000000e-03	1.798883e+00	1.797990e+00	1.797541e+00	
58	1.002000e-03	1.798883e+00	1.797990e+00	1.797541e+00	
59	1.006000e-03	1.798883e+00	1.797990e+00	1.797541e+00	
60	1.014000e-03	1.798883e+00	1.797990e+00	1.797541e+00	
61	1.020000e-03	1.436412e+00	1.474745e+00	1.483787e+00	
62	1.021407e-03	1.441399e+00	1.448310e+00	1.450101e+00	
63	1.024222e-03	1.528294e+00	1.505714e+00	1.499995e+00	
64	1.029275e-03	1.692249e+00	1.686732e+00	1.685062e+00	
65	1.035175e-03	1.742046e+00	1.739288e+00	1.738472e+00	
66	1.042196e-03	1.774619e+00	1.772197e+00	1.771293e+00	
67	1.055418e-03	1.788490e+00	1.788238e+00	1.788024e+00	
68	1.073501e-03	1.795223e+00	1.793490e+00	1.792762e+00	
69	1.093501e-03	1.793693e+00	1.793632e+00	1.793457e+00	
70	1.113501e-03	1.795490e+00	1.793772e+00	1.793053e+00	
71	1.133501e-03	1.793995e+00	1.793918e+00	1.793734e+00	
72	1.153501e-03	1.795296e+00	1.793609e+00	1.792904e+00	
73	1.173501e-03	1.794157e+00	1.794039e+00	1.793839e+00	
74	1.193501e-03	1.795166e+00	1.793527e+00	1.792839e+00	
75	1.213501e-03	1.794264e+00	1.794093e+00	1.793875e+00	
76	1.233501e-03	1.795077e+00	1.793493e+00	1.792825e+00	
77	1.253501e-03	1.794338e+00	1.794111e+00	1.793874e+00	
78	1.273501e-03	1.795014e+00	1.793488e+00	1.792837e+00	
79	1.293501e-03	1.794392e+00	1.794108e+00	1.793852e+00	
80	1.313501e-03	1.794967e+00	1.793497e+00	1.792865e+00	
81	1.333501e-03	1.794433e+00	1.794094e+00	1.793821e+00	
82	1.353501e-03	1.794932e+00	1.793514e+00	1.792899e+00	
83	1.373501e-03	1.794465e+00	1.794075e+00	1.793786e+00	
84	1.393501e-03	1.794903e+00	1.793534e+00	1.792935e+00	
85	1.413501e-03	1.794491e+00	1.794054e+00	1.793750e+00	
86	1.433501e-03	1.794879e+00	1.793555e+00	1.792970e+00	
87	1.453501e-03	1.794513e+00	1.794033e+00	1.793714e+00	
88	1.473501e-03	1.794859e+00	1.793577e+00	1.793005e+00	
89	1.493501e-03	1.794531e+00	1.794012e+00	1.793681e+00	
90	1.513501e-03	1.794841e+00	1.793597e+00	1.793037e+00	
91	1.533501e-03	1.794548e+00	1.793992e+00	1.793650e+00	
92	1.553501e-03	1.794826e+00	1.793616e+00	1.793066e+00	
93	1.573501e-03	1.794562e+00	1.793974e+00	1.793622e+00	
94	1.593501e-03	1.794812e+00	1.793633e+00	1.793093e+00	
95	1.613501e-03	1.794575e+00	1.793958e+00	1.793596e+00	
96	1.633501e-03	1.794800e+00	1.793649e+00	1.793118e+00	
97	1.653501e-03	1.794586e+00	1.793942e+00	1.793573e+00	
98	1.673501e-03	1.794789e+00	1.793663e+00	1.793141e+00	
99	1.693501e-03	1.794597e+00	1.793929e+00	1.793551e+00	
100	1.713501e-03	1.794780e+00	1.793677e+00	1.793161e+00	
101	1.733501e-03	1.794606e+00	1.793916e+00	1.793532e+00	
102	1.753501e-03	1.794771e+00	1.793688e+00	1.793179e+00	
103	1.773501e-03	1.794614e+00	1.793905e+00	1.793514e+00	
104	1.793501e-03	1.794763e+00	1.793699e+00	1.793196e+00	
105	1.813501e-03	1.794622e+00	1.793895e+00	1.793498e+00	
106	1.833501e-03	1.794756e+00	1.793709e+00	1.793211e+00	
107	1.853501e-03	1.794628e+00	1.793885e+00	1.793484e+00	
108	1.873501e-03	1.794750e+00	1.793718e+00	1.793225e+00	
109	1.893501e-03	1.794634e+00	1.793877e+00	1.793471e+00	
110	1.913501e-03	1.794744e+00	1.793726e+00	1.793237e+00	
111	1.933501e-03	1.794640e+00	1.793869e+00	1.793459e+00	
112	1.953501e-03	1.794739e+00	1.793733e+00	1.793248e+00	

Index   time            v(vin_main)     v(vmaster)      v(vu2)          
--------------------------------------------------------------------------------
113	1.973501e-03	1.794645e+00	1.793862e+00	1.793449e+00	
114	1.993501e-03	1.794734e+00	1.793739e+00	1.793258e+00	
115	2.013501e-03	1.794649e+00	1.793856e+00	1.793439e+00	
116	2.033501e-03	1.794730e+00	1.793745e+00	1.793267e+00	
117	2.053501e-03	1.794653e+00	1.793851e+00	1.793431e+00	
118	2.073501e-03	1.794726e+00	1.793751e+00	1.793275e+00	
119	2.093501e-03	1.794657e+00	1.793846e+00	1.793423e+00	
120	2.113501e-03	1.794722e+00	1.793755e+00	1.793283e+00	
121	2.133501e-03	1.794660e+00	1.793841e+00	1.793416e+00	
122	2.153501e-03	1.794719e+00	1.793760e+00	1.793289e+00	
123	2.173501e-03	1.794663e+00	1.793837e+00	1.793410e+00	
124	2.193501e-03	1.794717e+00	1.793764e+00	1.793295e+00	
125	2.213501e-03	1.794666e+00	1.793833e+00	1.793404e+00	
126	2.233501e-03	1.794714e+00	1.793767e+00	1.793301e+00	
127	2.253501e-03	1.794668e+00	1.793830e+00	1.793399e+00	
128	2.273501e-03	1.794712e+00	1.793770e+00	1.793306e+00	
129	2.293501e-03	1.794670e+00	1.793827e+00	1.793394e+00	
130	2.313501e-03	1.794710e+00	1.793773e+00	1.793310e+00	
131	2.333501e-03	1.794672e+00	1.793824e+00	1.793390e+00	
132	2.353501e-03	1.794708e+00	1.793776e+00	1.793314e+00	
133	2.373501e-03	1.794674e+00	1.793822e+00	1.793386e+00	
134	2.393501e-03	1.794706e+00	1.793778e+00	1.793318e+00	
135	2.413501e-03	1.794676e+00	1.793820e+00	1.793383e+00	
136	2.433501e-03	1.794705e+00	1.793780e+00	1.793321e+00	
137	2.453501e-03	1.794677e+00	1.793818e+00	1.793380e+00	
138	2.473501e-03	1.794703e+00	1.793782e+00	1.793324e+00	
139	2.493501e-03	1.794679e+00	1.793816e+00	1.793377e+00	
140	2.500000e-03	1.794701e+00	1.793785e+00	1.793329e+00	
141	2.501484e-03	1.794692e+00	1.793797e+00	1.793348e+00	
142	2.504451e-03	1.794689e+00	1.793801e+00	1.793353e+00	
143	2.510386e-03	1.794691e+00	1.793798e+00	1.793349e+00	
144	2.518561e-03	1.794690e+00	1.793801e+00	1.793353e+00	
145	2.520000e-03	1.794691e+00	1.793799e+00	1.793350e+00	
146	2.520799e-03	1.794691e+00	1.793799e+00	1.793351e+00	
147	2.522397e-03	1.794691e+00	1.793799e+00	1.793351e+00	
148	2.525594e-03	1.794691e+00	1.793799e+00	1.793351e+00	
149	2.531987e-03	1.794691e+00	1.793799e+00	1.793351e+00	
150	2.544773e-03	1.794691e+00	1.793799e+00	1.793351e+00	
151	2.564773e-03	1.794691e+00	1.793799e+00	1.793351e+00	
152	2.584773e-03	1.794691e+00	1.793799e+00	1.793351e+00	
153	2.604773e-03	1.794691e+00	1.793799e+00	1.793351e+00	
154	2.624773e-03	1.794691e+00	1.793799e+00	1.793351e+00	
155	2.644773e-03	1.794691e+00	1.793799e+00	1.793351e+00	
156	2.664773e-03	1.794691e+00	1.793799e+00	1.793351e+00	
157	2.684773e-03	1.794691e+00	1.793799e+00	1.793351e+00	
158	2.704773e-03	1.794691e+00	1.793799e+00	1.793351e+00	
159	2.724773e-03	1.794691e+00	1.793799e+00	1.793351e+00	
160	2.744773e-03	1.794691e+00	1.793799e+00	1.793351e+00	
161	2.764773e-03	1.794691e+00	1.793799e+00	1.793351e+00	
162	2.784773e-03	1.794691e+00	1.793799e+00	1.793351e+00	
163	2.804773e-03	1.794691e+00	1.793799e+00	1.793351e+00	
164	2.824773e-03	1.794691e+00	1.793799e+00	1.793351e+00	
165	2.844773e-03	1.794691e+00	1.793799e+00	1.793351e+00	
166	2.864773e-03	1.794691e+00	1.793799e+00	1.793351e+00	
167	2.884773e-03	1.794691e+00	1.793799e+00	1.793351e+00	
168	2.904773e-03	1.794691e+00	1.793799e+00	1.793351e+00	
169	2.924773e-03	1.794691e+00	1.793799e+00	1.793351e+00	
170	2.944773e-03	1.794691e+00	1.793799e+00	1.793351e+00	

Index   time            v(vin_main)     v(vmaster)      v(vu2)          
--------------------------------------------------------------------------------
171	2.964773e-03	1.794691e+00	1.793799e+00	1.793351e+00	
172	2.984773e-03	1.794691e+00	1.793799e+00	1.793351e+00	
173	3.004773e-03	1.794691e+00	1.793799e+00	1.793351e+00	
174	3.024773e-03	1.794691e+00	1.793799e+00	1.793351e+00	
175	3.044773e-03	1.794691e+00	1.793799e+00	1.793351e+00	
176	3.064773e-03	1.794691e+00	1.793799e+00	1.793351e+00	
177	3.084773e-03	1.794691e+00	1.793799e+00	1.793351e+00	
178	3.104773e-03	1.794691e+00	1.793799e+00	1.793351e+00	
179	3.124773e-03	1.794691e+00	1.793799e+00	1.793351e+00	
180	3.144773e-03	1.794691e+00	1.793799e+00	1.793351e+00	
181	3.164773e-03	1.794691e+00	1.793799e+00	1.793351e+00	
182	3.184773e-03	1.794691e+00	1.793799e+00	1.793351e+00	
183	3.204773e-03	1.794691e+00	1.793799e+00	1.793351e+00	
184	3.224773e-03	1.794691e+00	1.793799e+00	1.793351e+00	
185	3.244773e-03	1.794691e+00	1.793799e+00	1.793351e+00	
186	3.264773e-03	1.794691e+00	1.793799e+00	1.793351e+00	
187	3.284773e-03	1.794691e+00	1.793799e+00	1.793351e+00	
188	3.304773e-03	1.794691e+00	1.793799e+00	1.793351e+00	
189	3.324773e-03	1.794691e+00	1.793799e+00	1.793351e+00	
190	3.344773e-03	1.794691e+00	1.793799e+00	1.793351e+00	
191	3.364773e-03	1.794691e+00	1.793799e+00	1.793351e+00	
192	3.384773e-03	1.794691e+00	1.793799e+00	1.793351e+00	
193	3.404773e-03	1.794691e+00	1.793799e+00	1.793351e+00	
194	3.424773e-03	1.794691e+00	1.793799e+00	1.793351e+00	
195	3.444773e-03	1.794691e+00	1.793799e+00	1.793351e+00	
196	3.464773e-03	1.794691e+00	1.793799e+00	1.793351e+00	
197	3.484773e-03	1.794691e+00	1.793799e+00	1.793351e+00	
198	3.504773e-03	1.794691e+00	1.793799e+00	1.793351e+00	
199	3.524773e-03	1.794691e+00	1.793799e+00	1.793351e+00	
200	3.544773e-03	1.794691e+00	1.793799e+00	1.793351e+00	
201	3.564773e-03	1.794691e+00	1.793799e+00	1.793351e+00	
202	3.584773e-03	1.794691e+00	1.793799e+00	1.793351e+00	
203	3.604773e-03	1.794691e+00	1.793799e+00	1.793351e+00	
204	3.624773e-03	1.794691e+00	1.793799e+00	1.793351e+00	
205	3.644773e-03	1.794691e+00	1.793799e+00	1.793351e+00	
206	3.664773e-03	1.794691e+00	1.793799e+00	1.793351e+00	
207	3.684773e-03	1.794691e+00	1.793799e+00	1.793351e+00	
208	3.704773e-03	1.794691e+00	1.793799e+00	1.793351e+00	
209	3.724773e-03	1.794691e+00	1.793799e+00	1.793351e+00	
210	3.744773e-03	1.794691e+00	1.793799e+00	1.793351e+00	
211	3.764773e-03	1.794691e+00	1.793799e+00	1.793351e+00	
212	3.784773e-03	1.794691e+00	1.793799e+00	1.793351e+00	
213	3.804773e-03	1.794691e+00	1.793799e+00	1.793351e+00	
214	3.824773e-03	1.794691e+00	1.793799e+00	1.793351e+00	
215	3.844773e-03	1.794691e+00	1.793799e+00	1.793351e+00	
216	3.864773e-03	1.794691e+00	1.793799e+00	1.793351e+00	
217	3.884773e-03	1.794691e+00	1.793799e+00	1.793351e+00	
218	3.904773e-03	1.794691e+00	1.793799e+00	1.793351e+00	
219	3.924773e-03	1.794691e+00	1.793799e+00	1.793351e+00	
220	3.944773e-03	1.794691e+00	1.793799e+00	1.793351e+00	
221	3.964773e-03	1.794691e+00	1.793799e+00	1.793351e+00	
222	3.984773e-03	1.794691e+00	1.793799e+00	1.793351e+00	
223	4.004773e-03	1.794691e+00	1.793799e+00	1.793351e+00	
224	4.024773e-03	1.794691e+00	1.793799e+00	1.793351e+00	
225	4.044773e-03	1.794691e+00	1.793799e+00	1.793351e+00	
226	4.064773e-03	1.794691e+00	1.793799e+00	1.793351e+00	
227	4.084773e-03	1.794691e+00	1.793799e+00	1.793351e+00	
228	4.104773e-03	1.794691e+00	1.793799e+00	1.793351e+00	

Index   time            v(vin_main)     v(vmaster)      v(vu2)          
--------------------------------------------------------------------------------
229	4.124773e-03	1.794691e+00	1.793799e+00	1.793351e+00	
230	4.144773e-03	1.794691e+00	1.793799e+00	1.793351e+00	
231	4.164773e-03	1.794691e+00	1.793799e+00	1.793351e+00	
232	4.184773e-03	1.794691e+00	1.793799e+00	1.793351e+00	
233	4.204773e-03	1.794691e+00	1.793799e+00	1.793351e+00	
234	4.224773e-03	1.794691e+00	1.793799e+00	1.793351e+00	
235	4.244773e-03	1.794691e+00	1.793799e+00	1.793351e+00	
236	4.264773e-03	1.794691e+00	1.793799e+00	1.793351e+00	
237	4.284773e-03	1.794691e+00	1.793799e+00	1.793351e+00	
238	4.304773e-03	1.794691e+00	1.793799e+00	1.793351e+00	
239	4.324773e-03	1.794691e+00	1.793799e+00	1.793351e+00	
240	4.344773e-03	1.794691e+00	1.793799e+00	1.793351e+00	
241	4.364773e-03	1.794691e+00	1.793799e+00	1.793351e+00	
242	4.384773e-03	1.794691e+00	1.793799e+00	1.793351e+00	
243	4.404773e-03	1.794691e+00	1.793799e+00	1.793351e+00	
244	4.424773e-03	1.794691e+00	1.793799e+00	1.793351e+00	
245	4.444773e-03	1.794691e+00	1.793799e+00	1.793351e+00	
246	4.464773e-03	1.794691e+00	1.793799e+00	1.793351e+00	
247	4.484773e-03	1.794691e+00	1.793799e+00	1.793351e+00	
248	4.504773e-03	1.794691e+00	1.793799e+00	1.793351e+00	
249	4.524773e-03	1.794691e+00	1.793800e+00	1.793351e+00	
250	4.544773e-03	1.794691e+00	1.793800e+00	1.793351e+00	
251	4.564773e-03	1.794691e+00	1.793800e+00	1.793351e+00	
252	4.584773e-03	1.794691e+00	1.793800e+00	1.793351e+00	
253	4.604773e-03	1.794691e+00	1.793800e+00	1.793351e+00	
254	4.624773e-03	1.794691e+00	1.793800e+00	1.793351e+00	
255	4.644773e-03	1.794691e+00	1.793800e+00	1.793351e+00	
256	4.664773e-03	1.794691e+00	1.793800e+00	1.793351e+00	
257	4.684773e-03	1.794691e+00	1.793800e+00	1.793351e+00	
258	4.704773e-03	1.794691e+00	1.793800e+00	1.793351e+00	
259	4.724773e-03	1.794691e+00	1.793800e+00	1.793351e+00	
260	4.744773e-03	1.794691e+00	1.793800e+00	1.793351e+00	
261	4.764773e-03	1.794691e+00	1.793800e+00	1.793351e+00	
262	4.784773e-03	1.794691e+00	1.793800e+00	1.793351e+00	
263	4.804773e-03	1.794691e+00	1.793800e+00	1.793351e+00	
264	4.824773e-03	1.794691e+00	1.793800e+00	1.793351e+00	
265	4.844773e-03	1.794691e+00	1.793800e+00	1.793351e+00	
266	4.864773e-03	1.794691e+00	1.793800e+00	1.793351e+00	
267	4.884773e-03	1.794691e+00	1.793800e+00	1.793351e+00	
268	4.904773e-03	1.794691e+00	1.793800e+00	1.793351e+00	
269	4.924773e-03	1.794691e+00	1.793800e+00	1.793351e+00	
270	4.944773e-03	1.794691e+00	1.793800e+00	1.793351e+00	
271	4.964773e-03	1.794691e+00	1.793800e+00	1.793351e+00	
272	4.984773e-03	1.794691e+00	1.793800e+00	1.793351e+00	
273	5.004773e-03	1.794691e+00	1.793800e+00	1.793351e+00	
274	5.024773e-03	1.794691e+00	1.793800e+00	1.793351e+00	
275	5.044773e-03	1.794691e+00	1.793800e+00	1.793351e+00	
276	5.064773e-03	1.794691e+00	1.793800e+00	1.793351e+00	
277	5.084773e-03	1.794691e+00	1.793800e+00	1.793351e+00	
278	5.104773e-03	1.794691e+00	1.793800e+00	1.793351e+00	
279	5.124773e-03	1.794691e+00	1.793800e+00	1.793351e+00	
280	5.144773e-03	1.794691e+00	1.793800e+00	1.793351e+00	
281	5.164773e-03	1.794691e+00	1.793800e+00	1.793351e+00	
282	5.184773e-03	1.794691e+00	1.793800e+00	1.793351e+00	
283	5.204773e-03	1.794691e+00	1.793800e+00	1.793351e+00	
284	5.224773e-03	1.794691e+00	1.793800e+00	1.793351e+00	
285	5.244773e-03	1.794691e+00	1.793800e+00	1.793351e+00	
286	5.264773e-03	1.794691e+00	1.793800e+00	1.793351e+00	

Index   time            v(vin_main)     v(vmaster)      v(vu2)          
--------------------------------------------------------------------------------
287	5.284773e-03	1.794691e+00	1.793800e+00	1.793351e+00	
288	5.304773e-03	1.794691e+00	1.793800e+00	1.793351e+00	
289	5.324773e-03	1.794691e+00	1.793800e+00	1.793351e+00	
290	5.344773e-03	1.794691e+00	1.793800e+00	1.793351e+00	
291	5.364773e-03	1.794691e+00	1.793800e+00	1.793351e+00	
292	5.384773e-03	1.794691e+00	1.793800e+00	1.793351e+00	
293	5.404773e-03	1.794691e+00	1.793800e+00	1.793351e+00	
294	5.424773e-03	1.794691e+00	1.793800e+00	1.793351e+00	
295	5.444773e-03	1.794691e+00	1.793800e+00	1.793351e+00	
296	5.464773e-03	1.794691e+00	1.793800e+00	1.793351e+00	
297	5.484773e-03	1.794691e+00	1.793800e+00	1.793351e+00	
298	5.504773e-03	1.794691e+00	1.793800e+00	1.793351e+00	
299	5.524773e-03	1.794691e+00	1.793800e+00	1.793351e+00	
300	5.544773e-03	1.794691e+00	1.793800e+00	1.793351e+00	
301	5.564773e-03	1.794691e+00	1.793800e+00	1.793351e+00	
302	5.584773e-03	1.794691e+00	1.793800e+00	1.793351e+00	
303	5.604773e-03	1.794691e+00	1.793800e+00	1.793351e+00	
304	5.624773e-03	1.794691e+00	1.793800e+00	1.793351e+00	
305	5.644773e-03	1.794691e+00	1.793800e+00	1.793351e+00	
306	5.664773e-03	1.794691e+00	1.793800e+00	1.793351e+00	
307	5.684773e-03	1.794691e+00	1.793800e+00	1.793351e+00	
308	5.704773e-03	1.794691e+00	1.793800e+00	1.793351e+00	
309	5.724773e-03	1.794691e+00	1.793800e+00	1.793351e+00	
310	5.744773e-03	1.794691e+00	1.793800e+00	1.793351e+00	
311	5.764773e-03	1.794691e+00	1.793800e+00	1.793351e+00	
312	5.784773e-03	1.794691e+00	1.793800e+00	1.793351e+00	
313	5.804773e-03	1.794691e+00	1.793800e+00	1.793351e+00	
314	5.824773e-03	1.794691e+00	1.793800e+00	1.793351e+00	
315	5.844773e-03	1.794691e+00	1.793800e+00	1.793351e+00	
316	5.864773e-03	1.794691e+00	1.793800e+00	1.793351e+00	
317	5.884773e-03	1.794691e+00	1.793800e+00	1.793351e+00	
318	5.904773e-03	1.794691e+00	1.793800e+00	1.793351e+00	
319	5.924773e-03	1.794691e+00	1.793800e+00	1.793351e+00	
320	5.944773e-03	1.794691e+00	1.793800e+00	1.793351e+00	
321	5.964773e-03	1.794691e+00	1.793800e+00	1.793351e+00	
322	5.984773e-03	1.794691e+00	1.793800e+00	1.793351e+00	
323	6.004773e-03	1.794691e+00	1.793800e+00	1.793351e+00	
324	6.024773e-03	1.794691e+00	1.793800e+00	1.793351e+00	
325	6.044773e-03	1.794691e+00	1.793800e+00	1.793351e+00	
326	6.064773e-03	1.794691e+00	1.793800e+00	1.793351e+00	
327	6.084773e-03	1.794691e+00	1.793800e+00	1.793351e+00	
328	6.104773e-03	1.794691e+00	1.793800e+00	1.793351e+00	
329	6.124773e-03	1.794691e+00	1.793800e+00	1.793351e+00	
330	6.144773e-03	1.794691e+00	1.793800e+00	1.793351e+00	
331	6.164773e-03	1.794691e+00	1.793800e+00	1.793351e+00	
332	6.184773e-03	1.794691e+00	1.793800e+00	1.793351e+00	
333	6.204773e-03	1.794691e+00	1.793800e+00	1.793351e+00	
334	6.224773e-03	1.794691e+00	1.793800e+00	1.793351e+00	
335	6.244773e-03	1.794691e+00	1.793800e+00	1.793351e+00	
336	6.264773e-03	1.794691e+00	1.793800e+00	1.793351e+00	
337	6.284773e-03	1.794691e+00	1.793800e+00	1.793351e+00	
338	6.304773e-03	1.794691e+00	1.793800e+00	1.793351e+00	
339	6.324773e-03	1.794691e+00	1.793800e+00	1.793351e+00	
340	6.344773e-03	1.794691e+00	1.793800e+00	1.793351e+00	
341	6.364773e-03	1.794691e+00	1.793800e+00	1.793351e+00	
342	6.384773e-03	1.794691e+00	1.793800e+00	1.793351e+00	
343	6.404773e-03	1.794691e+00	1.793800e+00	1.793351e+00	
344	6.424773e-03	1.794691e+00	1.793800e+00	1.793351e+00	

Index   time            v(vin_main)     v(vmaster)      v(vu2)          
--------------------------------------------------------------------------------
345	6.444773e-03	1.794691e+00	1.793800e+00	1.793351e+00	
346	6.464773e-03	1.794691e+00	1.793800e+00	1.793351e+00	
347	6.484773e-03	1.794691e+00	1.793800e+00	1.793351e+00	
348	6.504773e-03	1.794691e+00	1.793800e+00	1.793351e+00	
349	6.524773e-03	1.794691e+00	1.793800e+00	1.793351e+00	
350	6.544773e-03	1.794691e+00	1.793800e+00	1.793351e+00	
351	6.564773e-03	1.794691e+00	1.793800e+00	1.793351e+00	
352	6.584773e-03	1.794691e+00	1.793800e+00	1.793351e+00	
353	6.604773e-03	1.794691e+00	1.793800e+00	1.793351e+00	
354	6.624773e-03	1.794691e+00	1.793800e+00	1.793351e+00	
355	6.644773e-03	1.794691e+00	1.793800e+00	1.793351e+00	
356	6.664773e-03	1.794691e+00	1.793800e+00	1.793351e+00	
357	6.684773e-03	1.794691e+00	1.793800e+00	1.793351e+00	
358	6.704773e-03	1.794691e+00	1.793800e+00	1.793351e+00	
359	6.724773e-03	1.794691e+00	1.793800e+00	1.793351e+00	
360	6.744773e-03	1.794691e+00	1.793800e+00	1.793351e+00	
361	6.764773e-03	1.794691e+00	1.793800e+00	1.793351e+00	
362	6.784773e-03	1.794691e+00	1.793800e+00	1.793351e+00	
363	6.804773e-03	1.794691e+00	1.793800e+00	1.793351e+00	
364	6.824773e-03	1.794691e+00	1.793800e+00	1.793351e+00	
365	6.844773e-03	1.794691e+00	1.793800e+00	1.793351e+00	
366	6.864773e-03	1.794691e+00	1.793800e+00	1.793351e+00	
367	6.884773e-03	1.794691e+00	1.793800e+00	1.793351e+00	
368	6.904773e-03	1.794691e+00	1.793800e+00	1.793351e+00	
369	6.924773e-03	1.794691e+00	1.793800e+00	1.793351e+00	
370	6.944773e-03	1.794691e+00	1.793800e+00	1.793351e+00	
371	6.964773e-03	1.794691e+00	1.793800e+00	1.793351e+00	
372	6.984773e-03	1.794691e+00	1.793800e+00	1.793351e+00	
373	7.004773e-03	1.794691e+00	1.793800e+00	1.793351e+00	
374	7.024773e-03	1.794691e+00	1.793800e+00	1.793351e+00	
375	7.044773e-03	1.794691e+00	1.793800e+00	1.793351e+00	
376	7.064773e-03	1.794691e+00	1.793800e+00	1.793351e+00	
377	7.084773e-03	1.794691e+00	1.793800e+00	1.793351e+00	
378	7.104773e-03	1.794691e+00	1.793800e+00	1.793351e+00	
379	7.124773e-03	1.794691e+00	1.793800e+00	1.793351e+00	
380	7.144773e-03	1.794691e+00	1.793800e+00	1.793351e+00	
381	7.164773e-03	1.794691e+00	1.793800e+00	1.793351e+00	
382	7.184773e-03	1.794691e+00	1.793800e+00	1.793351e+00	
383	7.204773e-03	1.794691e+00	1.793800e+00	1.793351e+00	
384	7.224773e-03	1.794691e+00	1.793800e+00	1.793351e+00	
385	7.244773e-03	1.794691e+00	1.793800e+00	1.793351e+00	
386	7.264773e-03	1.794691e+00	1.793800e+00	1.793351e+00	
387	7.284773e-03	1.794691e+00	1.793800e+00	1.793351e+00	
388	7.304773e-03	1.794691e+00	1.793800e+00	1.793351e+00	
389	7.324773e-03	1.794691e+00	1.793800e+00	1.793351e+00	
390	7.344773e-03	1.794691e+00	1.793800e+00	1.793351e+00	
391	7.364773e-03	1.794691e+00	1.793800e+00	1.793351e+00	
392	7.384773e-03	1.794691e+00	1.793800e+00	1.793351e+00	
393	7.404773e-03	1.794691e+00	1.793800e+00	1.793351e+00	
394	7.424773e-03	1.794691e+00	1.793800e+00	1.793351e+00	
395	7.444773e-03	1.794691e+00	1.793800e+00	1.793351e+00	
396	7.464773e-03	1.794691e+00	1.793800e+00	1.793351e+00	
397	7.484773e-03	1.794691e+00	1.793800e+00	1.793351e+00	
398	7.504773e-03	1.794691e+00	1.793800e+00	1.793351e+00	
399	7.524773e-03	1.794691e+00	1.793800e+00	1.793351e+00	
400	7.544773e-03	1.794691e+00	1.793800e+00	1.793351e+00	
401	7.564773e-03	1.794691e+00	1.793800e+00	1.793351e+00	
402	7.584773e-03	1.794691e+00	1.793800e+00	1.793351e+00	

Index   time            v(vin_main)     v(vmaster)      v(vu2)          
--------------------------------------------------------------------------------
403	7.604773e-03	1.794691e+00	1.793800e+00	1.793351e+00	
404	7.624773e-03	1.794691e+00	1.793800e+00	1.793351e+00	
405	7.644773e-03	1.794691e+00	1.793800e+00	1.793351e+00	
406	7.664773e-03	1.794691e+00	1.793800e+00	1.793351e+00	
407	7.684773e-03	1.794691e+00	1.793800e+00	1.793351e+00	
408	7.704773e-03	1.794691e+00	1.793800e+00	1.793351e+00	
409	7.724773e-03	1.794691e+00	1.793800e+00	1.793351e+00	
410	7.744773e-03	1.794691e+00	1.793800e+00	1.793351e+00	
411	7.764773e-03	1.794691e+00	1.793800e+00	1.793351e+00	
412	7.784773e-03	1.794691e+00	1.793800e+00	1.793351e+00	
413	7.804773e-03	1.794691e+00	1.793800e+00	1.793351e+00	
414	7.824773e-03	1.794691e+00	1.793800e+00	1.793351e+00	
415	7.844773e-03	1.794691e+00	1.793800e+00	1.793351e+00	
416	7.864773e-03	1.794691e+00	1.793800e+00	1.793351e+00	
417	7.884773e-03	1.794691e+00	1.793800e+00	1.793351e+00	
418	7.904773e-03	1.794691e+00	1.793800e+00	1.793351e+00	
419	7.924773e-03	1.794691e+00	1.793800e+00	1.793351e+00	
420	7.944773e-03	1.794691e+00	1.793800e+00	1.793351e+00	
421	7.964773e-03	1.794691e+00	1.793800e+00	1.793351e+00	
422	7.984773e-03	1.794691e+00	1.793800e+00	1.793351e+00	
423	8.004773e-03	1.794691e+00	1.793800e+00	1.793351e+00	
424	8.024773e-03	1.794691e+00	1.793800e+00	1.793351e+00	
425	8.044773e-03	1.794691e+00	1.793800e+00	1.793351e+00	
426	8.064773e-03	1.794691e+00	1.793800e+00	1.793351e+00	
427	8.084773e-03	1.794691e+00	1.793800e+00	1.793351e+00	
428	8.104773e-03	1.794691e+00	1.793800e+00	1.793351e+00	
429	8.124773e-03	1.794691e+00	1.793800e+00	1.793351e+00	
430	8.144773e-03	1.794691e+00	1.793800e+00	1.793351e+00	
431	8.164773e-03	1.794691e+00	1.793800e+00	1.793351e+00	
432	8.184773e-03	1.794691e+00	1.793800e+00	1.793351e+00	
433	8.204773e-03	1.794691e+00	1.793800e+00	1.793351e+00	
434	8.224773e-03	1.794691e+00	1.793800e+00	1.793351e+00	
435	8.244773e-03	1.794691e+00	1.793800e+00	1.793351e+00	
436	8.264773e-03	1.794691e+00	1.793800e+00	1.793351e+00	
437	8.284773e-03	1.794691e+00	1.793800e+00	1.793351e+00	
438	8.304773e-03	1.794691e+00	1.793800e+00	1.793351e+00	
439	8.324773e-03	1.794691e+00	1.793800e+00	1.793351e+00	
440	8.344773e-03	1.794691e+00	1.793800e+00	1.793351e+00	
441	8.364773e-03	1.794691e+00	1.793800e+00	1.793351e+00	
442	8.384773e-03	1.794691e+00	1.793800e+00	1.793351e+00	
443	8.404773e-03	1.794691e+00	1.793800e+00	1.793351e+00	
444	8.424773e-03	1.794691e+00	1.793800e+00	1.793351e+00	
445	8.444773e-03	1.794691e+00	1.793800e+00	1.793351e+00	
446	8.464773e-03	1.794691e+00	1.793800e+00	1.793351e+00	
447	8.484773e-03	1.794691e+00	1.793800e+00	1.793351e+00	
448	8.504773e-03	1.794691e+00	1.793800e+00	1.793351e+00	
449	8.524773e-03	1.794691e+00	1.793800e+00	1.793351e+00	
450	8.544773e-03	1.794691e+00	1.793800e+00	1.793351e+00	
451	8.564773e-03	1.794691e+00	1.793800e+00	1.793351e+00	
452	8.584773e-03	1.794691e+00	1.793800e+00	1.793351e+00	
453	8.604773e-03	1.794691e+00	1.793800e+00	1.793351e+00	
454	8.624773e-03	1.794691e+00	1.793800e+00	1.793351e+00	
455	8.644773e-03	1.794691e+00	1.793800e+00	1.793351e+00	
456	8.664773e-03	1.794691e+00	1.793800e+00	1.793351e+00	
457	8.684773e-03	1.794691e+00	1.793800e+00	1.793351e+00	
458	8.704773e-03	1.794691e+00	1.793800e+00	1.793351e+00	
459	8.724773e-03	1.794691e+00	1.793800e+00	1.793351e+00	
460	8.744773e-03	1.794691e+00	1.793800e+00	1.793351e+00	

Index   time            v(vin_main)     v(vmaster)      v(vu2)          
--------------------------------------------------------------------------------
461	8.764773e-03	1.794691e+00	1.793800e+00	1.793351e+00	
462	8.784773e-03	1.794691e+00	1.793800e+00	1.793351e+00	
463	8.804773e-03	1.794691e+00	1.793800e+00	1.793351e+00	
464	8.824773e-03	1.794691e+00	1.793800e+00	1.793351e+00	
465	8.844773e-03	1.794691e+00	1.793800e+00	1.793351e+00	
466	8.864773e-03	1.794691e+00	1.793800e+00	1.793351e+00	
467	8.884773e-03	1.794691e+00	1.793800e+00	1.793351e+00	
468	8.904773e-03	1.794691e+00	1.793800e+00	1.793351e+00	
469	8.924773e-03	1.794691e+00	1.793800e+00	1.793351e+00	
470	8.944773e-03	1.794691e+00	1.793800e+00	1.793351e+00	
471	8.964773e-03	1.794691e+00	1.793800e+00	1.793351e+00	
472	8.984773e-03	1.794691e+00	1.793800e+00	1.793351e+00	
473	9.004773e-03	1.794691e+00	1.793800e+00	1.793351e+00	
474	9.024773e-03	1.794691e+00	1.793800e+00	1.793351e+00	
475	9.044773e-03	1.794691e+00	1.793800e+00	1.793351e+00	
476	9.064773e-03	1.794691e+00	1.793800e+00	1.793351e+00	
477	9.084773e-03	1.794691e+00	1.793800e+00	1.793351e+00	
478	9.104773e-03	1.794691e+00	1.793800e+00	1.793351e+00	
479	9.124773e-03	1.794691e+00	1.793800e+00	1.793351e+00	
480	9.144773e-03	1.794691e+00	1.793800e+00	1.793351e+00	
481	9.164773e-03	1.794691e+00	1.793800e+00	1.793351e+00	
482	9.184773e-03	1.794691e+00	1.793800e+00	1.793351e+00	
483	9.204773e-03	1.794691e+00	1.793800e+00	1.793351e+00	
484	9.224773e-03	1.794691e+00	1.793800e+00	1.793351e+00	
485	9.244773e-03	1.794691e+00	1.793800e+00	1.793351e+00	
486	9.264773e-03	1.794691e+00	1.793800e+00	1.793351e+00	
487	9.284773e-03	1.794691e+00	1.793800e+00	1.793351e+00	
488	9.304773e-03	1.794691e+00	1.793800e+00	1.793351e+00	
489	9.324773e-03	1.794691e+00	1.793800e+00	1.793351e+00	
490	9.344773e-03	1.794691e+00	1.793800e+00	1.793351e+00	
491	9.364773e-03	1.794691e+00	1.793800e+00	1.793351e+00	
492	9.384773e-03	1.794691e+00	1.793800e+00	1.793351e+00	
493	9.404773e-03	1.794691e+00	1.793800e+00	1.793351e+00	
494	9.424773e-03	1.794691e+00	1.793800e+00	1.793351e+00	
495	9.444773e-03	1.794691e+00	1.793800e+00	1.793351e+00	
496	9.464773e-03	1.794691e+00	1.793800e+00	1.793351e+00	
497	9.484773e-03	1.794691e+00	1.793800e+00	1.793351e+00	
498	9.504773e-03	1.794691e+00	1.793800e+00	1.793351e+00	
499	9.524773e-03	1.794691e+00	1.793800e+00	1.793351e+00	
500	9.544773e-03	1.794691e+00	1.793800e+00	1.793351e+00	
501	9.564773e-03	1.794691e+00	1.793800e+00	1.793351e+00	
502	9.584773e-03	1.794691e+00	1.793800e+00	1.793351e+00	
503	9.604773e-03	1.794691e+00	1.793800e+00	1.793351e+00	
504	9.624773e-03	1.794691e+00	1.793800e+00	1.793351e+00	
505	9.644773e-03	1.794691e+00	1.793800e+00	1.793351e+00	
506	9.664773e-03	1.794691e+00	1.793800e+00	1.793351e+00	
507	9.684773e-03	1.794691e+00	1.793800e+00	1.793351e+00	
508	9.704773e-03	1.794691e+00	1.793800e+00	1.793351e+00	
509	9.724773e-03	1.794691e+00	1.793800e+00	1.793351e+00	
510	9.744773e-03	1.794691e+00	1.793800e+00	1.793351e+00	
511	9.764773e-03	1.794691e+00	1.793800e+00	1.793351e+00	
512	9.784773e-03	1.794691e+00	1.793800e+00	1.793351e+00	
513	9.804773e-03	1.794691e+00	1.793800e+00	1.793351e+00	
514	9.824773e-03	1.794691e+00	1.793800e+00	1.793351e+00	
515	9.844773e-03	1.794691e+00	1.793800e+00	1.793351e+00	
516	9.864773e-03	1.794691e+00	1.793800e+00	1.793351e+00	
517	9.884773e-03	1.794691e+00	1.793800e+00	1.793351e+00	
518	9.904773e-03	1.794691e+00	1.793800e+00	1.793351e+00	

Index   time            v(vin_main)     v(vmaster)      v(vu2)          
--------------------------------------------------------------------------------
519	9.924773e-03	1.794691e+00	1.793800e+00	1.793351e+00	
520	9.944773e-03	1.794691e+00	1.793800e+00	1.793351e+00	
521	9.964773e-03	1.794691e+00	1.793800e+00	1.793351e+00	
522	9.984773e-03	1.794691e+00	1.793800e+00	1.793351e+00	
523	1.000477e-02	1.794691e+00	1.793800e+00	1.793351e+00	
524	1.002477e-02	1.794691e+00	1.793800e+00	1.793351e+00	
525	1.004477e-02	1.794691e+00	1.793800e+00	1.793351e+00	
526	1.006477e-02	1.794691e+00	1.793800e+00	1.793351e+00	
527	1.008477e-02	1.794691e+00	1.793800e+00	1.793351e+00	
528	1.010477e-02	1.794691e+00	1.793800e+00	1.793351e+00	
529	1.012477e-02	1.794691e+00	1.793800e+00	1.793351e+00	
530	1.014477e-02	1.794691e+00	1.793800e+00	1.793351e+00	
531	1.016477e-02	1.794691e+00	1.793800e+00	1.793351e+00	
532	1.018477e-02	1.794691e+00	1.793800e+00	1.793351e+00	
533	1.020477e-02	1.794691e+00	1.793800e+00	1.793351e+00	
534	1.022477e-02	1.794691e+00	1.793800e+00	1.793351e+00	
535	1.024477e-02	1.794691e+00	1.793800e+00	1.793351e+00	
536	1.026477e-02	1.794691e+00	1.793800e+00	1.793351e+00	
537	1.028477e-02	1.794691e+00	1.793800e+00	1.793351e+00	
538	1.030477e-02	1.794691e+00	1.793800e+00	1.793351e+00	
539	1.032477e-02	1.794691e+00	1.793800e+00	1.793351e+00	
540	1.034477e-02	1.794691e+00	1.793800e+00	1.793351e+00	
541	1.036477e-02	1.794691e+00	1.793800e+00	1.793351e+00	
542	1.038477e-02	1.794691e+00	1.793800e+00	1.793351e+00	
543	1.040477e-02	1.794691e+00	1.793800e+00	1.793351e+00	
544	1.042477e-02	1.794691e+00	1.793800e+00	1.793351e+00	
545	1.044477e-02	1.794691e+00	1.793800e+00	1.793351e+00	
546	1.046477e-02	1.794691e+00	1.793800e+00	1.793351e+00	
547	1.048477e-02	1.794691e+00	1.793800e+00	1.793351e+00	
548	1.050477e-02	1.794691e+00	1.793800e+00	1.793351e+00	
549	1.052477e-02	1.794691e+00	1.793800e+00	1.793351e+00	
550	1.054477e-02	1.794691e+00	1.793800e+00	1.793351e+00	
551	1.056477e-02	1.794691e+00	1.793800e+00	1.793351e+00	
552	1.058477e-02	1.794691e+00	1.793800e+00	1.793351e+00	
553	1.060477e-02	1.794691e+00	1.793800e+00	1.793351e+00	
554	1.062477e-02	1.794691e+00	1.793800e+00	1.793351e+00	
555	1.064477e-02	1.794691e+00	1.793800e+00	1.793351e+00	
556	1.066477e-02	1.794691e+00	1.793800e+00	1.793351e+00	
557	1.068477e-02	1.794691e+00	1.793800e+00	1.793351e+00	
558	1.070477e-02	1.794691e+00	1.793800e+00	1.793351e+00	
559	1.072477e-02	1.794691e+00	1.793800e+00	1.793351e+00	
560	1.074477e-02	1.794691e+00	1.793800e+00	1.793351e+00	
561	1.076477e-02	1.794691e+00	1.793800e+00	1.793351e+00	
562	1.078477e-02	1.794691e+00	1.793800e+00	1.793351e+00	
563	1.080477e-02	1.794691e+00	1.793800e+00	1.793351e+00	
564	1.082477e-02	1.794691e+00	1.793800e+00	1.793351e+00	
565	1.084477e-02	1.794691e+00	1.793800e+00	1.793351e+00	
566	1.086477e-02	1.794691e+00	1.793800e+00	1.793351e+00	
567	1.088477e-02	1.794691e+00	1.793800e+00	1.793351e+00	
568	1.090477e-02	1.794691e+00	1.793800e+00	1.793351e+00	
569	1.092477e-02	1.794691e+00	1.793800e+00	1.793351e+00	
570	1.094477e-02	1.794691e+00	1.793800e+00	1.793351e+00	
571	1.096477e-02	1.794691e+00	1.793800e+00	1.793351e+00	
572	1.098477e-02	1.794691e+00	1.793800e+00	1.793351e+00	
573	1.100477e-02	1.794691e+00	1.793800e+00	1.793351e+00	
574	1.102477e-02	1.794691e+00	1.793800e+00	1.793351e+00	
575	1.104477e-02	1.794691e+00	1.793800e+00	1.793351e+00	
576	1.106477e-02	1.794691e+00	1.793800e+00	1.793351e+00	

Index   time            v(vin_main)     v(vmaster)      v(vu2)          
--------------------------------------------------------------------------------
577	1.108477e-02	1.794691e+00	1.793800e+00	1.793351e+00	
578	1.110477e-02	1.794691e+00	1.793800e+00	1.793351e+00	
579	1.112477e-02	1.794691e+00	1.793800e+00	1.793351e+00	
580	1.114477e-02	1.794691e+00	1.793800e+00	1.793351e+00	
581	1.116477e-02	1.794691e+00	1.793800e+00	1.793351e+00	
582	1.118477e-02	1.794691e+00	1.793800e+00	1.793351e+00	
583	1.120477e-02	1.794691e+00	1.793800e+00	1.793351e+00	
584	1.122477e-02	1.794691e+00	1.793800e+00	1.793351e+00	
585	1.124477e-02	1.794691e+00	1.793800e+00	1.793351e+00	
586	1.126477e-02	1.794691e+00	1.793800e+00	1.793351e+00	
587	1.128477e-02	1.794691e+00	1.793800e+00	1.793351e+00	
588	1.130477e-02	1.794691e+00	1.793800e+00	1.793351e+00	
589	1.132477e-02	1.794691e+00	1.793800e+00	1.793351e+00	
590	1.134477e-02	1.794691e+00	1.793800e+00	1.793351e+00	
591	1.136477e-02	1.794691e+00	1.793800e+00	1.793351e+00	
592	1.138477e-02	1.794691e+00	1.793800e+00	1.793351e+00	
593	1.140477e-02	1.794691e+00	1.793800e+00	1.793351e+00	
594	1.142477e-02	1.794691e+00	1.793800e+00	1.793351e+00	
595	1.144477e-02	1.794691e+00	1.793800e+00	1.793351e+00	
596	1.146477e-02	1.794691e+00	1.793800e+00	1.793351e+00	
597	1.148477e-02	1.794691e+00	1.793800e+00	1.793351e+00	
598	1.150477e-02	1.794691e+00	1.793800e+00	1.793351e+00	
599	1.152477e-02	1.794691e+00	1.793800e+00	1.793351e+00	
600	1.154477e-02	1.794691e+00	1.793800e+00	1.793351e+00	
601	1.156477e-02	1.794691e+00	1.793800e+00	1.793351e+00	
602	1.158477e-02	1.794691e+00	1.793800e+00	1.793351e+00	
603	1.160477e-02	1.794691e+00	1.793800e+00	1.793351e+00	
604	1.162477e-02	1.794691e+00	1.793800e+00	1.793351e+00	
605	1.164477e-02	1.794691e+00	1.793800e+00	1.793351e+00	
606	1.166477e-02	1.794691e+00	1.793800e+00	1.793351e+00	
607	1.168477e-02	1.794691e+00	1.793800e+00	1.793351e+00	
608	1.170477e-02	1.794691e+00	1.793800e+00	1.793351e+00	
609	1.172477e-02	1.794691e+00	1.793800e+00	1.793351e+00	
610	1.174477e-02	1.794691e+00	1.793800e+00	1.793351e+00	
611	1.176477e-02	1.794691e+00	1.793800e+00	1.793351e+00	
612	1.178477e-02	1.794691e+00	1.793800e+00	1.793351e+00	
613	1.180477e-02	1.794691e+00	1.793800e+00	1.793351e+00	
614	1.182477e-02	1.794691e+00	1.793800e+00	1.793351e+00	
615	1.184477e-02	1.794691e+00	1.793800e+00	1.793351e+00	
616	1.186477e-02	1.794691e+00	1.793800e+00	1.793351e+00	
617	1.188477e-02	1.794691e+00	1.793800e+00	1.793351e+00	
618	1.190477e-02	1.794691e+00	1.793800e+00	1.793351e+00	
619	1.192477e-02	1.794691e+00	1.793800e+00	1.793351e+00	
620	1.194477e-02	1.794691e+00	1.793800e+00	1.793351e+00	
621	1.196477e-02	1.794691e+00	1.793800e+00	1.793351e+00	
622	1.198477e-02	1.794691e+00	1.793800e+00	1.793351e+00	
623	1.200000e-02	1.794691e+00	1.793800e+00	1.793351e+00	

                      tb001-ga144-test-bringup-spi-enabled
                      Transient Analysis  Sat Jun 13 17:42:20  2026
--------------------------------------------------------------------------------
Index   time            v(vu1)          v(vu3)          v(bootmode)     
--------------------------------------------------------------------------------
0	0.000000e+00	1.797846e+00	1.797915e+00	0.000000e+00	
1	2.000000e-07	1.797846e+00	1.797915e+00	0.000000e+00	
2	4.000000e-07	1.797846e+00	1.797915e+00	0.000000e+00	
3	8.000000e-07	1.797846e+00	1.797915e+00	0.000000e+00	
4	1.600000e-06	1.797846e+00	1.797915e+00	0.000000e+00	
5	3.200000e-06	1.797846e+00	1.797915e+00	0.000000e+00	
6	6.400000e-06	1.797846e+00	1.797915e+00	0.000000e+00	
7	1.280000e-05	1.797846e+00	1.797915e+00	0.000000e+00	
8	2.560000e-05	1.797846e+00	1.797915e+00	0.000000e+00	
9	4.560000e-05	1.797846e+00	1.797915e+00	0.000000e+00	
10	6.560000e-05	1.797846e+00	1.797915e+00	0.000000e+00	
11	8.560000e-05	1.797846e+00	1.797915e+00	0.000000e+00	
12	1.056000e-04	1.797846e+00	1.797915e+00	0.000000e+00	
13	1.256000e-04	1.797846e+00	1.797915e+00	0.000000e+00	
14	1.456000e-04	1.797846e+00	1.797915e+00	0.000000e+00	
15	1.656000e-04	1.797846e+00	1.797915e+00	0.000000e+00	
16	1.856000e-04	1.797846e+00	1.797915e+00	0.000000e+00	
17	2.056000e-04	1.797846e+00	1.797915e+00	0.000000e+00	
18	2.256000e-04	1.797846e+00	1.797915e+00	0.000000e+00	
19	2.456000e-04	1.797846e+00	1.797915e+00	0.000000e+00	
20	2.656000e-04	1.797846e+00	1.797915e+00	0.000000e+00	
21	2.856000e-04	1.797846e+00	1.797915e+00	0.000000e+00	
22	3.056000e-04	1.797846e+00	1.797915e+00	0.000000e+00	
23	3.256000e-04	1.797846e+00	1.797915e+00	0.000000e+00	
24	3.456000e-04	1.797846e+00	1.797915e+00	0.000000e+00	
25	3.656000e-04	1.797846e+00	1.797915e+00	0.000000e+00	
26	3.856000e-04	1.797846e+00	1.797915e+00	0.000000e+00	
27	4.056000e-04	1.797846e+00	1.797915e+00	0.000000e+00	
28	4.256000e-04	1.797846e+00	1.797915e+00	0.000000e+00	
29	4.456000e-04	1.797846e+00	1.797915e+00	0.000000e+00	
30	4.656000e-04	1.797846e+00	1.797915e+00	0.000000e+00	
31	4.856000e-04	1.797846e+00	1.797915e+00	0.000000e+00	
32	5.056000e-04	1.797846e+00	1.797915e+00	0.000000e+00	
33	5.256000e-04	1.797846e+00	1.797915e+00	0.000000e+00	
34	5.456000e-04	1.797846e+00	1.797915e+00	0.000000e+00	
35	5.656000e-04	1.797846e+00	1.797915e+00	0.000000e+00	
36	5.856000e-04	1.797846e+00	1.797915e+00	0.000000e+00	
37	6.056000e-04	1.797846e+00	1.797915e+00	0.000000e+00	
38	6.256000e-04	1.797846e+00	1.797915e+00	0.000000e+00	
39	6.456000e-04	1.797846e+00	1.797915e+00	0.000000e+00	
40	6.656000e-04	1.797846e+00	1.797915e+00	0.000000e+00	
41	6.856000e-04	1.797846e+00	1.797915e+00	0.000000e+00	
42	7.056000e-04	1.797846e+00	1.797915e+00	0.000000e+00	
43	7.256000e-04	1.797846e+00	1.797915e+00	0.000000e+00	
44	7.456000e-04	1.797846e+00	1.797915e+00	0.000000e+00	
45	7.656000e-04	1.797846e+00	1.797915e+00	0.000000e+00	
46	7.856000e-04	1.797846e+00	1.797915e+00	0.000000e+00	
47	8.056000e-04	1.797846e+00	1.797915e+00	0.000000e+00	
48	8.256000e-04	1.797846e+00	1.797915e+00	0.000000e+00	
49	8.456000e-04	1.797846e+00	1.797915e+00	0.000000e+00	
50	8.656000e-04	1.797846e+00	1.797915e+00	0.000000e+00	
51	8.856000e-04	1.797846e+00	1.797915e+00	0.000000e+00	
52	9.056000e-04	1.797846e+00	1.797915e+00	0.000000e+00	
53	9.256000e-04	1.797846e+00	1.797915e+00	0.000000e+00	
54	9.456000e-04	1.797846e+00	1.797915e+00	0.000000e+00	

Index   time            v(vu1)          v(vu3)          v(bootmode)     
--------------------------------------------------------------------------------
55	9.656000e-04	1.797846e+00	1.797915e+00	0.000000e+00	
56	9.856000e-04	1.797846e+00	1.797915e+00	0.000000e+00	
57	1.000000e-03	1.797846e+00	1.797915e+00	0.000000e+00	
58	1.002000e-03	1.797846e+00	1.797915e+00	0.000000e+00	
59	1.006000e-03	1.797846e+00	1.797915e+00	0.000000e+00	
60	1.014000e-03	1.797846e+00	1.797915e+00	0.000000e+00	
61	1.020000e-03	1.478880e+00	1.477196e+00	0.000000e+00	
62	1.021407e-03	1.449042e+00	1.448725e+00	0.000000e+00	
63	1.024222e-03	1.503206e+00	1.504249e+00	0.000000e+00	
64	1.029275e-03	1.686089e+00	1.686371e+00	0.000000e+00	
65	1.035175e-03	1.738940e+00	1.739087e+00	0.000000e+00	
66	1.042196e-03	1.771888e+00	1.772031e+00	0.000000e+00	
67	1.055418e-03	1.788164e+00	1.788199e+00	0.000000e+00	
68	1.073501e-03	1.793255e+00	1.793367e+00	0.000000e+00	
69	1.093501e-03	1.793578e+00	1.793605e+00	0.000000e+00	
70	1.113501e-03	1.793538e+00	1.793649e+00	0.000000e+00	
71	1.133501e-03	1.793863e+00	1.793891e+00	0.000000e+00	
72	1.153501e-03	1.793379e+00	1.793488e+00	0.000000e+00	
73	1.173501e-03	1.793980e+00	1.794009e+00	0.000000e+00	
74	1.193501e-03	1.793302e+00	1.793408e+00	0.000000e+00	
75	1.213501e-03	1.794029e+00	1.794061e+00	0.000000e+00	
76	1.233501e-03	1.793274e+00	1.793378e+00	0.000000e+00	
77	1.253501e-03	1.794040e+00	1.794075e+00	0.000000e+00	
78	1.273501e-03	1.793275e+00	1.793376e+00	0.000000e+00	
79	1.293501e-03	1.794031e+00	1.794069e+00	0.000000e+00	
80	1.313501e-03	1.793290e+00	1.793388e+00	0.000000e+00	
81	1.333501e-03	1.794011e+00	1.794052e+00	0.000000e+00	
82	1.353501e-03	1.793312e+00	1.793408e+00	0.000000e+00	
83	1.373501e-03	1.793987e+00	1.794030e+00	0.000000e+00	
84	1.393501e-03	1.793338e+00	1.793431e+00	0.000000e+00	
85	1.413501e-03	1.793961e+00	1.794006e+00	0.000000e+00	
86	1.433501e-03	1.793364e+00	1.793455e+00	0.000000e+00	
87	1.453501e-03	1.793934e+00	1.793982e+00	0.000000e+00	
88	1.473501e-03	1.793390e+00	1.793479e+00	0.000000e+00	
89	1.493501e-03	1.793910e+00	1.793959e+00	0.000000e+00	
90	1.513501e-03	1.793414e+00	1.793501e+00	0.000000e+00	
91	1.533501e-03	1.793886e+00	1.793937e+00	0.000000e+00	
92	1.553501e-03	1.793437e+00	1.793522e+00	0.000000e+00	
93	1.573501e-03	1.793864e+00	1.793917e+00	0.000000e+00	
94	1.593501e-03	1.793457e+00	1.793541e+00	0.000000e+00	
95	1.613501e-03	1.793845e+00	1.793899e+00	0.000000e+00	
96	1.633501e-03	1.793476e+00	1.793559e+00	0.000000e+00	
97	1.653501e-03	1.793827e+00	1.793882e+00	0.000000e+00	
98	1.673501e-03	1.793494e+00	1.793575e+00	0.000000e+00	
99	1.693501e-03	1.793810e+00	1.793867e+00	0.000000e+00	
100	1.713501e-03	1.793509e+00	1.793589e+00	0.000000e+00	
101	1.733501e-03	1.793795e+00	1.793853e+00	0.000000e+00	
102	1.753501e-03	1.793523e+00	1.793602e+00	0.000000e+00	
103	1.773501e-03	1.793782e+00	1.793841e+00	0.000000e+00	
104	1.793501e-03	1.793536e+00	1.793614e+00	0.000000e+00	
105	1.813501e-03	1.793770e+00	1.793830e+00	0.000000e+00	
106	1.833501e-03	1.793548e+00	1.793625e+00	0.000000e+00	
107	1.853501e-03	1.793759e+00	1.793819e+00	0.000000e+00	
108	1.873501e-03	1.793558e+00	1.793635e+00	0.000000e+00	
109	1.893501e-03	1.793749e+00	1.793810e+00	0.000000e+00	
110	1.913501e-03	1.793568e+00	1.793644e+00	0.000000e+00	
111	1.933501e-03	1.793740e+00	1.793802e+00	0.000000e+00	
112	1.953501e-03	1.793576e+00	1.793651e+00	0.000000e+00	

Index   time            v(vu1)          v(vu3)          v(bootmode)     
--------------------------------------------------------------------------------
113	1.973501e-03	1.793732e+00	1.793794e+00	0.000000e+00	
114	1.993501e-03	1.793584e+00	1.793659e+00	0.000000e+00	
115	2.013501e-03	1.793724e+00	1.793787e+00	0.000000e+00	
116	2.033501e-03	1.793591e+00	1.793665e+00	0.000000e+00	
117	2.053501e-03	1.793718e+00	1.793781e+00	0.000000e+00	
118	2.073501e-03	1.793597e+00	1.793671e+00	0.000000e+00	
119	2.093501e-03	1.793712e+00	1.793776e+00	0.000000e+00	
120	2.113501e-03	1.793603e+00	1.793676e+00	0.000000e+00	
121	2.133501e-03	1.793706e+00	1.793771e+00	0.000000e+00	
122	2.153501e-03	1.793608e+00	1.793681e+00	0.000000e+00	
123	2.173501e-03	1.793702e+00	1.793766e+00	0.000000e+00	
124	2.193501e-03	1.793613e+00	1.793685e+00	0.000000e+00	
125	2.213501e-03	1.793697e+00	1.793762e+00	0.000000e+00	
126	2.233501e-03	1.793617e+00	1.793689e+00	0.000000e+00	
127	2.253501e-03	1.793693e+00	1.793759e+00	0.000000e+00	
128	2.273501e-03	1.793621e+00	1.793692e+00	0.000000e+00	
129	2.293501e-03	1.793690e+00	1.793755e+00	0.000000e+00	
130	2.313501e-03	1.793624e+00	1.793696e+00	0.000000e+00	
131	2.333501e-03	1.793686e+00	1.793752e+00	0.000000e+00	
132	2.353501e-03	1.793627e+00	1.793698e+00	0.000000e+00	
133	2.373501e-03	1.793683e+00	1.793750e+00	0.000000e+00	
134	2.393501e-03	1.793630e+00	1.793701e+00	0.000000e+00	
135	2.413501e-03	1.793681e+00	1.793747e+00	0.000000e+00	
136	2.433501e-03	1.793632e+00	1.793703e+00	0.000000e+00	
137	2.453501e-03	1.793678e+00	1.793745e+00	0.000000e+00	
138	2.473501e-03	1.793635e+00	1.793705e+00	0.000000e+00	
139	2.493501e-03	1.793676e+00	1.793743e+00	0.000000e+00	
140	2.500000e-03	1.793638e+00	1.793709e+00	0.000000e+00	
141	2.501484e-03	1.793653e+00	1.793722e+00	0.000000e+00	
142	2.504451e-03	1.793658e+00	1.793726e+00	0.000000e+00	
143	2.510386e-03	1.793654e+00	1.793723e+00	0.000000e+00	
144	2.518561e-03	1.793657e+00	1.793726e+00	0.000000e+00	
145	2.520000e-03	1.793655e+00	1.793724e+00	0.000000e+00	
146	2.520799e-03	1.793656e+00	1.793725e+00	0.000000e+00	
147	2.522397e-03	1.793656e+00	1.793725e+00	0.000000e+00	
148	2.525594e-03	1.793656e+00	1.793725e+00	0.000000e+00	
149	2.531987e-03	1.793656e+00	1.793725e+00	0.000000e+00	
150	2.544773e-03	1.793656e+00	1.793725e+00	0.000000e+00	
151	2.564773e-03	1.793656e+00	1.793725e+00	0.000000e+00	
152	2.584773e-03	1.793656e+00	1.793725e+00	0.000000e+00	
153	2.604773e-03	1.793656e+00	1.793725e+00	0.000000e+00	
154	2.624773e-03	1.793656e+00	1.793725e+00	0.000000e+00	
155	2.644773e-03	1.793656e+00	1.793725e+00	0.000000e+00	
156	2.664773e-03	1.793656e+00	1.793725e+00	0.000000e+00	
157	2.684773e-03	1.793656e+00	1.793725e+00	0.000000e+00	
158	2.704773e-03	1.793656e+00	1.793725e+00	0.000000e+00	
159	2.724773e-03	1.793656e+00	1.793725e+00	0.000000e+00	
160	2.744773e-03	1.793656e+00	1.793725e+00	0.000000e+00	
161	2.764773e-03	1.793656e+00	1.793725e+00	0.000000e+00	
162	2.784773e-03	1.793656e+00	1.793725e+00	0.000000e+00	
163	2.804773e-03	1.793656e+00	1.793725e+00	0.000000e+00	
164	2.824773e-03	1.793656e+00	1.793725e+00	0.000000e+00	
165	2.844773e-03	1.793656e+00	1.793725e+00	0.000000e+00	
166	2.864773e-03	1.793656e+00	1.793725e+00	0.000000e+00	
167	2.884773e-03	1.793656e+00	1.793725e+00	0.000000e+00	
168	2.904773e-03	1.793656e+00	1.793725e+00	0.000000e+00	
169	2.924773e-03	1.793656e+00	1.793725e+00	0.000000e+00	
170	2.944773e-03	1.793656e+00	1.793725e+00	0.000000e+00	

Index   time            v(vu1)          v(vu3)          v(bootmode)     
--------------------------------------------------------------------------------
171	2.964773e-03	1.793656e+00	1.793725e+00	0.000000e+00	
172	2.984773e-03	1.793656e+00	1.793725e+00	0.000000e+00	
173	3.004773e-03	1.793656e+00	1.793725e+00	0.000000e+00	
174	3.024773e-03	1.793656e+00	1.793725e+00	0.000000e+00	
175	3.044773e-03	1.793656e+00	1.793725e+00	0.000000e+00	
176	3.064773e-03	1.793656e+00	1.793725e+00	0.000000e+00	
177	3.084773e-03	1.793656e+00	1.793725e+00	0.000000e+00	
178	3.104773e-03	1.793656e+00	1.793725e+00	0.000000e+00	
179	3.124773e-03	1.793656e+00	1.793725e+00	0.000000e+00	
180	3.144773e-03	1.793656e+00	1.793725e+00	0.000000e+00	
181	3.164773e-03	1.793656e+00	1.793725e+00	0.000000e+00	
182	3.184773e-03	1.793656e+00	1.793725e+00	0.000000e+00	
183	3.204773e-03	1.793656e+00	1.793725e+00	0.000000e+00	
184	3.224773e-03	1.793656e+00	1.793725e+00	0.000000e+00	
185	3.244773e-03	1.793656e+00	1.793725e+00	0.000000e+00	
186	3.264773e-03	1.793656e+00	1.793725e+00	0.000000e+00	
187	3.284773e-03	1.793656e+00	1.793725e+00	0.000000e+00	
188	3.304773e-03	1.793656e+00	1.793725e+00	0.000000e+00	
189	3.324773e-03	1.793656e+00	1.793725e+00	0.000000e+00	
190	3.344773e-03	1.793656e+00	1.793725e+00	0.000000e+00	
191	3.364773e-03	1.793656e+00	1.793725e+00	0.000000e+00	
192	3.384773e-03	1.793656e+00	1.793725e+00	0.000000e+00	
193	3.404773e-03	1.793656e+00	1.793725e+00	0.000000e+00	
194	3.424773e-03	1.793656e+00	1.793725e+00	0.000000e+00	
195	3.444773e-03	1.793656e+00	1.793725e+00	0.000000e+00	
196	3.464773e-03	1.793656e+00	1.793725e+00	0.000000e+00	
197	3.484773e-03	1.793656e+00	1.793725e+00	0.000000e+00	
198	3.504773e-03	1.793656e+00	1.793725e+00	0.000000e+00	
199	3.524773e-03	1.793656e+00	1.793725e+00	0.000000e+00	
200	3.544773e-03	1.793656e+00	1.793725e+00	0.000000e+00	
201	3.564773e-03	1.793656e+00	1.793725e+00	0.000000e+00	
202	3.584773e-03	1.793656e+00	1.793725e+00	0.000000e+00	
203	3.604773e-03	1.793656e+00	1.793725e+00	0.000000e+00	
204	3.624773e-03	1.793656e+00	1.793725e+00	0.000000e+00	
205	3.644773e-03	1.793656e+00	1.793725e+00	0.000000e+00	
206	3.664773e-03	1.793656e+00	1.793725e+00	0.000000e+00	
207	3.684773e-03	1.793656e+00	1.793725e+00	0.000000e+00	
208	3.704773e-03	1.793656e+00	1.793725e+00	0.000000e+00	
209	3.724773e-03	1.793656e+00	1.793725e+00	0.000000e+00	
210	3.744773e-03	1.793656e+00	1.793725e+00	0.000000e+00	
211	3.764773e-03	1.793656e+00	1.793725e+00	0.000000e+00	
212	3.784773e-03	1.793656e+00	1.793725e+00	0.000000e+00	
213	3.804773e-03	1.793656e+00	1.793725e+00	0.000000e+00	
214	3.824773e-03	1.793656e+00	1.793725e+00	0.000000e+00	
215	3.844773e-03	1.793656e+00	1.793725e+00	0.000000e+00	
216	3.864773e-03	1.793656e+00	1.793725e+00	0.000000e+00	
217	3.884773e-03	1.793656e+00	1.793725e+00	0.000000e+00	
218	3.904773e-03	1.793656e+00	1.793725e+00	0.000000e+00	
219	3.924773e-03	1.793656e+00	1.793725e+00	0.000000e+00	
220	3.944773e-03	1.793656e+00	1.793725e+00	0.000000e+00	
221	3.964773e-03	1.793656e+00	1.793725e+00	0.000000e+00	
222	3.984773e-03	1.793656e+00	1.793725e+00	0.000000e+00	
223	4.004773e-03	1.793656e+00	1.793725e+00	0.000000e+00	
224	4.024773e-03	1.793656e+00	1.793725e+00	0.000000e+00	
225	4.044773e-03	1.793656e+00	1.793725e+00	0.000000e+00	
226	4.064773e-03	1.793656e+00	1.793725e+00	0.000000e+00	
227	4.084773e-03	1.793656e+00	1.793725e+00	0.000000e+00	
228	4.104773e-03	1.793656e+00	1.793725e+00	0.000000e+00	

Index   time            v(vu1)          v(vu3)          v(bootmode)     
--------------------------------------------------------------------------------
229	4.124773e-03	1.793656e+00	1.793725e+00	0.000000e+00	
230	4.144773e-03	1.793656e+00	1.793725e+00	0.000000e+00	
231	4.164773e-03	1.793656e+00	1.793725e+00	0.000000e+00	
232	4.184773e-03	1.793656e+00	1.793725e+00	0.000000e+00	
233	4.204773e-03	1.793656e+00	1.793725e+00	0.000000e+00	
234	4.224773e-03	1.793656e+00	1.793725e+00	0.000000e+00	
235	4.244773e-03	1.793656e+00	1.793725e+00	0.000000e+00	
236	4.264773e-03	1.793656e+00	1.793725e+00	0.000000e+00	
237	4.284773e-03	1.793656e+00	1.793725e+00	0.000000e+00	
238	4.304773e-03	1.793656e+00	1.793725e+00	0.000000e+00	
239	4.324773e-03	1.793656e+00	1.793725e+00	0.000000e+00	
240	4.344773e-03	1.793656e+00	1.793725e+00	0.000000e+00	
241	4.364773e-03	1.793656e+00	1.793725e+00	0.000000e+00	
242	4.384773e-03	1.793656e+00	1.793725e+00	0.000000e+00	
243	4.404773e-03	1.793656e+00	1.793725e+00	0.000000e+00	
244	4.424773e-03	1.793656e+00	1.793725e+00	0.000000e+00	
245	4.444773e-03	1.793656e+00	1.793725e+00	0.000000e+00	
246	4.464773e-03	1.793656e+00	1.793725e+00	0.000000e+00	
247	4.484773e-03	1.793656e+00	1.793725e+00	0.000000e+00	
248	4.504773e-03	1.793656e+00	1.793725e+00	0.000000e+00	
249	4.524773e-03	1.793656e+00	1.793725e+00	0.000000e+00	
250	4.544773e-03	1.793656e+00	1.793725e+00	0.000000e+00	
251	4.564773e-03	1.793656e+00	1.793725e+00	0.000000e+00	
252	4.584773e-03	1.793656e+00	1.793725e+00	0.000000e+00	
253	4.604773e-03	1.793656e+00	1.793725e+00	0.000000e+00	
254	4.624773e-03	1.793656e+00	1.793725e+00	0.000000e+00	
255	4.644773e-03	1.793656e+00	1.793725e+00	0.000000e+00	
256	4.664773e-03	1.793656e+00	1.793725e+00	0.000000e+00	
257	4.684773e-03	1.793656e+00	1.793725e+00	0.000000e+00	
258	4.704773e-03	1.793656e+00	1.793725e+00	0.000000e+00	
259	4.724773e-03	1.793656e+00	1.793725e+00	0.000000e+00	
260	4.744773e-03	1.793656e+00	1.793725e+00	0.000000e+00	
261	4.764773e-03	1.793656e+00	1.793725e+00	0.000000e+00	
262	4.784773e-03	1.793656e+00	1.793725e+00	0.000000e+00	
263	4.804773e-03	1.793656e+00	1.793725e+00	0.000000e+00	
264	4.824773e-03	1.793656e+00	1.793725e+00	0.000000e+00	
265	4.844773e-03	1.793656e+00	1.793725e+00	0.000000e+00	
266	4.864773e-03	1.793656e+00	1.793725e+00	0.000000e+00	
267	4.884773e-03	1.793656e+00	1.793725e+00	0.000000e+00	
268	4.904773e-03	1.793656e+00	1.793725e+00	0.000000e+00	
269	4.924773e-03	1.793656e+00	1.793725e+00	0.000000e+00	
270	4.944773e-03	1.793656e+00	1.793725e+00	0.000000e+00	
271	4.964773e-03	1.793656e+00	1.793725e+00	0.000000e+00	
272	4.984773e-03	1.793656e+00	1.793725e+00	0.000000e+00	
273	5.004773e-03	1.793656e+00	1.793725e+00	0.000000e+00	
274	5.024773e-03	1.793656e+00	1.793725e+00	0.000000e+00	
275	5.044773e-03	1.793656e+00	1.793725e+00	0.000000e+00	
276	5.064773e-03	1.793656e+00	1.793725e+00	0.000000e+00	
277	5.084773e-03	1.793656e+00	1.793725e+00	0.000000e+00	
278	5.104773e-03	1.793656e+00	1.793725e+00	0.000000e+00	
279	5.124773e-03	1.793656e+00	1.793725e+00	0.000000e+00	
280	5.144773e-03	1.793656e+00	1.793725e+00	0.000000e+00	
281	5.164773e-03	1.793656e+00	1.793725e+00	0.000000e+00	
282	5.184773e-03	1.793656e+00	1.793725e+00	0.000000e+00	
283	5.204773e-03	1.793656e+00	1.793725e+00	0.000000e+00	
284	5.224773e-03	1.793656e+00	1.793725e+00	0.000000e+00	
285	5.244773e-03	1.793656e+00	1.793725e+00	0.000000e+00	
286	5.264773e-03	1.793656e+00	1.793725e+00	0.000000e+00	

Index   time            v(vu1)          v(vu3)          v(bootmode)     
--------------------------------------------------------------------------------
287	5.284773e-03	1.793656e+00	1.793725e+00	0.000000e+00	
288	5.304773e-03	1.793656e+00	1.793725e+00	0.000000e+00	
289	5.324773e-03	1.793656e+00	1.793725e+00	0.000000e+00	
290	5.344773e-03	1.793656e+00	1.793725e+00	0.000000e+00	
291	5.364773e-03	1.793656e+00	1.793725e+00	0.000000e+00	
292	5.384773e-03	1.793656e+00	1.793725e+00	0.000000e+00	
293	5.404773e-03	1.793656e+00	1.793725e+00	0.000000e+00	
294	5.424773e-03	1.793656e+00	1.793725e+00	0.000000e+00	
295	5.444773e-03	1.793656e+00	1.793725e+00	0.000000e+00	
296	5.464773e-03	1.793656e+00	1.793725e+00	0.000000e+00	
297	5.484773e-03	1.793656e+00	1.793725e+00	0.000000e+00	
298	5.504773e-03	1.793656e+00	1.793725e+00	0.000000e+00	
299	5.524773e-03	1.793656e+00	1.793725e+00	0.000000e+00	
300	5.544773e-03	1.793656e+00	1.793725e+00	0.000000e+00	
301	5.564773e-03	1.793656e+00	1.793725e+00	0.000000e+00	
302	5.584773e-03	1.793656e+00	1.793725e+00	0.000000e+00	
303	5.604773e-03	1.793656e+00	1.793725e+00	0.000000e+00	
304	5.624773e-03	1.793656e+00	1.793725e+00	0.000000e+00	
305	5.644773e-03	1.793656e+00	1.793725e+00	0.000000e+00	
306	5.664773e-03	1.793656e+00	1.793725e+00	0.000000e+00	
307	5.684773e-03	1.793656e+00	1.793725e+00	0.000000e+00	
308	5.704773e-03	1.793656e+00	1.793725e+00	0.000000e+00	
309	5.724773e-03	1.793656e+00	1.793725e+00	0.000000e+00	
310	5.744773e-03	1.793656e+00	1.793725e+00	0.000000e+00	
311	5.764773e-03	1.793656e+00	1.793725e+00	0.000000e+00	
312	5.784773e-03	1.793656e+00	1.793725e+00	0.000000e+00	
313	5.804773e-03	1.793656e+00	1.793725e+00	0.000000e+00	
314	5.824773e-03	1.793656e+00	1.793725e+00	0.000000e+00	
315	5.844773e-03	1.793656e+00	1.793725e+00	0.000000e+00	
316	5.864773e-03	1.793656e+00	1.793725e+00	0.000000e+00	
317	5.884773e-03	1.793656e+00	1.793725e+00	0.000000e+00	
318	5.904773e-03	1.793656e+00	1.793725e+00	0.000000e+00	
319	5.924773e-03	1.793656e+00	1.793725e+00	0.000000e+00	
320	5.944773e-03	1.793656e+00	1.793725e+00	0.000000e+00	
321	5.964773e-03	1.793656e+00	1.793725e+00	0.000000e+00	
322	5.984773e-03	1.793656e+00	1.793725e+00	0.000000e+00	
323	6.004773e-03	1.793656e+00	1.793725e+00	0.000000e+00	
324	6.024773e-03	1.793656e+00	1.793725e+00	0.000000e+00	
325	6.044773e-03	1.793656e+00	1.793725e+00	0.000000e+00	
326	6.064773e-03	1.793656e+00	1.793725e+00	0.000000e+00	
327	6.084773e-03	1.793656e+00	1.793725e+00	0.000000e+00	
328	6.104773e-03	1.793656e+00	1.793725e+00	0.000000e+00	
329	6.124773e-03	1.793656e+00	1.793725e+00	0.000000e+00	
330	6.144773e-03	1.793656e+00	1.793725e+00	0.000000e+00	
331	6.164773e-03	1.793656e+00	1.793725e+00	0.000000e+00	
332	6.184773e-03	1.793656e+00	1.793725e+00	0.000000e+00	
333	6.204773e-03	1.793656e+00	1.793725e+00	0.000000e+00	
334	6.224773e-03	1.793656e+00	1.793725e+00	0.000000e+00	
335	6.244773e-03	1.793656e+00	1.793725e+00	0.000000e+00	
336	6.264773e-03	1.793656e+00	1.793725e+00	0.000000e+00	
337	6.284773e-03	1.793656e+00	1.793725e+00	0.000000e+00	
338	6.304773e-03	1.793656e+00	1.793725e+00	0.000000e+00	
339	6.324773e-03	1.793656e+00	1.793725e+00	0.000000e+00	
340	6.344773e-03	1.793656e+00	1.793725e+00	0.000000e+00	
341	6.364773e-03	1.793656e+00	1.793725e+00	0.000000e+00	
342	6.384773e-03	1.793656e+00	1.793725e+00	0.000000e+00	
343	6.404773e-03	1.793656e+00	1.793725e+00	0.000000e+00	
344	6.424773e-03	1.793656e+00	1.793725e+00	0.000000e+00	

Index   time            v(vu1)          v(vu3)          v(bootmode)     
--------------------------------------------------------------------------------
345	6.444773e-03	1.793656e+00	1.793725e+00	0.000000e+00	
346	6.464773e-03	1.793656e+00	1.793725e+00	0.000000e+00	
347	6.484773e-03	1.793656e+00	1.793725e+00	0.000000e+00	
348	6.504773e-03	1.793656e+00	1.793725e+00	0.000000e+00	
349	6.524773e-03	1.793656e+00	1.793725e+00	0.000000e+00	
350	6.544773e-03	1.793656e+00	1.793725e+00	0.000000e+00	
351	6.564773e-03	1.793656e+00	1.793725e+00	0.000000e+00	
352	6.584773e-03	1.793656e+00	1.793725e+00	0.000000e+00	
353	6.604773e-03	1.793656e+00	1.793725e+00	0.000000e+00	
354	6.624773e-03	1.793656e+00	1.793725e+00	0.000000e+00	
355	6.644773e-03	1.793656e+00	1.793725e+00	0.000000e+00	
356	6.664773e-03	1.793656e+00	1.793725e+00	0.000000e+00	
357	6.684773e-03	1.793656e+00	1.793725e+00	0.000000e+00	
358	6.704773e-03	1.793656e+00	1.793725e+00	0.000000e+00	
359	6.724773e-03	1.793656e+00	1.793725e+00	0.000000e+00	
360	6.744773e-03	1.793656e+00	1.793725e+00	0.000000e+00	
361	6.764773e-03	1.793656e+00	1.793725e+00	0.000000e+00	
362	6.784773e-03	1.793656e+00	1.793725e+00	0.000000e+00	
363	6.804773e-03	1.793656e+00	1.793725e+00	0.000000e+00	
364	6.824773e-03	1.793656e+00	1.793725e+00	0.000000e+00	
365	6.844773e-03	1.793656e+00	1.793725e+00	0.000000e+00	
366	6.864773e-03	1.793656e+00	1.793725e+00	0.000000e+00	
367	6.884773e-03	1.793656e+00	1.793725e+00	0.000000e+00	
368	6.904773e-03	1.793656e+00	1.793725e+00	0.000000e+00	
369	6.924773e-03	1.793656e+00	1.793725e+00	0.000000e+00	
370	6.944773e-03	1.793656e+00	1.793725e+00	0.000000e+00	
371	6.964773e-03	1.793656e+00	1.793725e+00	0.000000e+00	
372	6.984773e-03	1.793656e+00	1.793725e+00	0.000000e+00	
373	7.004773e-03	1.793656e+00	1.793725e+00	0.000000e+00	
374	7.024773e-03	1.793656e+00	1.793725e+00	0.000000e+00	
375	7.044773e-03	1.793656e+00	1.793725e+00	0.000000e+00	
376	7.064773e-03	1.793656e+00	1.793725e+00	0.000000e+00	
377	7.084773e-03	1.793656e+00	1.793725e+00	0.000000e+00	
378	7.104773e-03	1.793656e+00	1.793725e+00	0.000000e+00	
379	7.124773e-03	1.793656e+00	1.793725e+00	0.000000e+00	
380	7.144773e-03	1.793656e+00	1.793725e+00	0.000000e+00	
381	7.164773e-03	1.793656e+00	1.793725e+00	0.000000e+00	
382	7.184773e-03	1.793656e+00	1.793725e+00	0.000000e+00	
383	7.204773e-03	1.793656e+00	1.793725e+00	0.000000e+00	
384	7.224773e-03	1.793656e+00	1.793725e+00	0.000000e+00	
385	7.244773e-03	1.793656e+00	1.793725e+00	0.000000e+00	
386	7.264773e-03	1.793656e+00	1.793725e+00	0.000000e+00	
387	7.284773e-03	1.793656e+00	1.793725e+00	0.000000e+00	
388	7.304773e-03	1.793656e+00	1.793725e+00	0.000000e+00	
389	7.324773e-03	1.793656e+00	1.793725e+00	0.000000e+00	
390	7.344773e-03	1.793656e+00	1.793725e+00	0.000000e+00	
391	7.364773e-03	1.793656e+00	1.793725e+00	0.000000e+00	
392	7.384773e-03	1.793656e+00	1.793725e+00	0.000000e+00	
393	7.404773e-03	1.793656e+00	1.793725e+00	0.000000e+00	
394	7.424773e-03	1.793656e+00	1.793725e+00	0.000000e+00	
395	7.444773e-03	1.793656e+00	1.793725e+00	0.000000e+00	
396	7.464773e-03	1.793656e+00	1.793725e+00	0.000000e+00	
397	7.484773e-03	1.793656e+00	1.793725e+00	0.000000e+00	
398	7.504773e-03	1.793656e+00	1.793725e+00	0.000000e+00	
399	7.524773e-03	1.793656e+00	1.793725e+00	0.000000e+00	
400	7.544773e-03	1.793656e+00	1.793725e+00	0.000000e+00	
401	7.564773e-03	1.793656e+00	1.793725e+00	0.000000e+00	
402	7.584773e-03	1.793656e+00	1.793725e+00	0.000000e+00	

Index   time            v(vu1)          v(vu3)          v(bootmode)     
--------------------------------------------------------------------------------
403	7.604773e-03	1.793656e+00	1.793725e+00	0.000000e+00	
404	7.624773e-03	1.793656e+00	1.793725e+00	0.000000e+00	
405	7.644773e-03	1.793656e+00	1.793725e+00	0.000000e+00	
406	7.664773e-03	1.793656e+00	1.793725e+00	0.000000e+00	
407	7.684773e-03	1.793656e+00	1.793725e+00	0.000000e+00	
408	7.704773e-03	1.793656e+00	1.793725e+00	0.000000e+00	
409	7.724773e-03	1.793656e+00	1.793725e+00	0.000000e+00	
410	7.744773e-03	1.793656e+00	1.793725e+00	0.000000e+00	
411	7.764773e-03	1.793656e+00	1.793725e+00	0.000000e+00	
412	7.784773e-03	1.793656e+00	1.793725e+00	0.000000e+00	
413	7.804773e-03	1.793656e+00	1.793725e+00	0.000000e+00	
414	7.824773e-03	1.793656e+00	1.793725e+00	0.000000e+00	
415	7.844773e-03	1.793656e+00	1.793725e+00	0.000000e+00	
416	7.864773e-03	1.793656e+00	1.793725e+00	0.000000e+00	
417	7.884773e-03	1.793656e+00	1.793725e+00	0.000000e+00	
418	7.904773e-03	1.793656e+00	1.793725e+00	0.000000e+00	
419	7.924773e-03	1.793656e+00	1.793725e+00	0.000000e+00	
420	7.944773e-03	1.793656e+00	1.793725e+00	0.000000e+00	
421	7.964773e-03	1.793656e+00	1.793725e+00	0.000000e+00	
422	7.984773e-03	1.793656e+00	1.793725e+00	0.000000e+00	
423	8.004773e-03	1.793656e+00	1.793725e+00	0.000000e+00	
424	8.024773e-03	1.793656e+00	1.793725e+00	0.000000e+00	
425	8.044773e-03	1.793656e+00	1.793725e+00	0.000000e+00	
426	8.064773e-03	1.793656e+00	1.793725e+00	0.000000e+00	
427	8.084773e-03	1.793656e+00	1.793725e+00	0.000000e+00	
428	8.104773e-03	1.793656e+00	1.793725e+00	0.000000e+00	
429	8.124773e-03	1.793656e+00	1.793725e+00	0.000000e+00	
430	8.144773e-03	1.793656e+00	1.793725e+00	0.000000e+00	
431	8.164773e-03	1.793656e+00	1.793725e+00	0.000000e+00	
432	8.184773e-03	1.793656e+00	1.793725e+00	0.000000e+00	
433	8.204773e-03	1.793656e+00	1.793725e+00	0.000000e+00	
434	8.224773e-03	1.793656e+00	1.793725e+00	0.000000e+00	
435	8.244773e-03	1.793656e+00	1.793725e+00	0.000000e+00	
436	8.264773e-03	1.793656e+00	1.793725e+00	0.000000e+00	
437	8.284773e-03	1.793656e+00	1.793725e+00	0.000000e+00	
438	8.304773e-03	1.793656e+00	1.793725e+00	0.000000e+00	
439	8.324773e-03	1.793656e+00	1.793725e+00	0.000000e+00	
440	8.344773e-03	1.793656e+00	1.793725e+00	0.000000e+00	
441	8.364773e-03	1.793656e+00	1.793725e+00	0.000000e+00	
442	8.384773e-03	1.793656e+00	1.793725e+00	0.000000e+00	
443	8.404773e-03	1.793656e+00	1.793725e+00	0.000000e+00	
444	8.424773e-03	1.793656e+00	1.793725e+00	0.000000e+00	
445	8.444773e-03	1.793656e+00	1.793725e+00	0.000000e+00	
446	8.464773e-03	1.793656e+00	1.793725e+00	0.000000e+00	
447	8.484773e-03	1.793656e+00	1.793725e+00	0.000000e+00	
448	8.504773e-03	1.793656e+00	1.793725e+00	0.000000e+00	
449	8.524773e-03	1.793656e+00	1.793725e+00	0.000000e+00	
450	8.544773e-03	1.793656e+00	1.793725e+00	0.000000e+00	
451	8.564773e-03	1.793656e+00	1.793725e+00	0.000000e+00	
452	8.584773e-03	1.793656e+00	1.793725e+00	0.000000e+00	
453	8.604773e-03	1.793656e+00	1.793725e+00	0.000000e+00	
454	8.624773e-03	1.793656e+00	1.793725e+00	0.000000e+00	
455	8.644773e-03	1.793656e+00	1.793725e+00	0.000000e+00	
456	8.664773e-03	1.793656e+00	1.793725e+00	0.000000e+00	
457	8.684773e-03	1.793656e+00	1.793725e+00	0.000000e+00	
458	8.704773e-03	1.793656e+00	1.793725e+00	0.000000e+00	
459	8.724773e-03	1.793656e+00	1.793725e+00	0.000000e+00	
460	8.744773e-03	1.793656e+00	1.793725e+00	0.000000e+00	

Index   time            v(vu1)          v(vu3)          v(bootmode)     
--------------------------------------------------------------------------------
461	8.764773e-03	1.793656e+00	1.793725e+00	0.000000e+00	
462	8.784773e-03	1.793656e+00	1.793725e+00	0.000000e+00	
463	8.804773e-03	1.793656e+00	1.793725e+00	0.000000e+00	
464	8.824773e-03	1.793656e+00	1.793725e+00	0.000000e+00	
465	8.844773e-03	1.793656e+00	1.793725e+00	0.000000e+00	
466	8.864773e-03	1.793656e+00	1.793725e+00	0.000000e+00	
467	8.884773e-03	1.793656e+00	1.793725e+00	0.000000e+00	
468	8.904773e-03	1.793656e+00	1.793725e+00	0.000000e+00	
469	8.924773e-03	1.793656e+00	1.793725e+00	0.000000e+00	
470	8.944773e-03	1.793656e+00	1.793725e+00	0.000000e+00	
471	8.964773e-03	1.793656e+00	1.793725e+00	0.000000e+00	
472	8.984773e-03	1.793656e+00	1.793725e+00	0.000000e+00	
473	9.004773e-03	1.793656e+00	1.793725e+00	0.000000e+00	
474	9.024773e-03	1.793656e+00	1.793725e+00	0.000000e+00	
475	9.044773e-03	1.793656e+00	1.793725e+00	0.000000e+00	
476	9.064773e-03	1.793656e+00	1.793725e+00	0.000000e+00	
477	9.084773e-03	1.793656e+00	1.793725e+00	0.000000e+00	
478	9.104773e-03	1.793656e+00	1.793725e+00	0.000000e+00	
479	9.124773e-03	1.793656e+00	1.793725e+00	0.000000e+00	
480	9.144773e-03	1.793656e+00	1.793725e+00	0.000000e+00	
481	9.164773e-03	1.793656e+00	1.793725e+00	0.000000e+00	
482	9.184773e-03	1.793656e+00	1.793725e+00	0.000000e+00	
483	9.204773e-03	1.793656e+00	1.793725e+00	0.000000e+00	
484	9.224773e-03	1.793656e+00	1.793725e+00	0.000000e+00	
485	9.244773e-03	1.793656e+00	1.793725e+00	0.000000e+00	
486	9.264773e-03	1.793656e+00	1.793725e+00	0.000000e+00	
487	9.284773e-03	1.793656e+00	1.793725e+00	0.000000e+00	
488	9.304773e-03	1.793656e+00	1.793725e+00	0.000000e+00	
489	9.324773e-03	1.793656e+00	1.793725e+00	0.000000e+00	
490	9.344773e-03	1.793656e+00	1.793725e+00	0.000000e+00	
491	9.364773e-03	1.793656e+00	1.793725e+00	0.000000e+00	
492	9.384773e-03	1.793656e+00	1.793725e+00	0.000000e+00	
493	9.404773e-03	1.793656e+00	1.793725e+00	0.000000e+00	
494	9.424773e-03	1.793656e+00	1.793725e+00	0.000000e+00	
495	9.444773e-03	1.793656e+00	1.793725e+00	0.000000e+00	
496	9.464773e-03	1.793656e+00	1.793725e+00	0.000000e+00	
497	9.484773e-03	1.793656e+00	1.793725e+00	0.000000e+00	
498	9.504773e-03	1.793656e+00	1.793725e+00	0.000000e+00	
499	9.524773e-03	1.793656e+00	1.793725e+00	0.000000e+00	
500	9.544773e-03	1.793656e+00	1.793725e+00	0.000000e+00	
501	9.564773e-03	1.793656e+00	1.793725e+00	0.000000e+00	
502	9.584773e-03	1.793656e+00	1.793725e+00	0.000000e+00	
503	9.604773e-03	1.793656e+00	1.793725e+00	0.000000e+00	
504	9.624773e-03	1.793656e+00	1.793725e+00	0.000000e+00	
505	9.644773e-03	1.793656e+00	1.793725e+00	0.000000e+00	
506	9.664773e-03	1.793656e+00	1.793725e+00	0.000000e+00	
507	9.684773e-03	1.793656e+00	1.793725e+00	0.000000e+00	
508	9.704773e-03	1.793656e+00	1.793725e+00	0.000000e+00	
509	9.724773e-03	1.793656e+00	1.793725e+00	0.000000e+00	
510	9.744773e-03	1.793656e+00	1.793725e+00	0.000000e+00	
511	9.764773e-03	1.793656e+00	1.793725e+00	0.000000e+00	
512	9.784773e-03	1.793656e+00	1.793725e+00	0.000000e+00	
513	9.804773e-03	1.793656e+00	1.793725e+00	0.000000e+00	
514	9.824773e-03	1.793656e+00	1.793725e+00	0.000000e+00	
515	9.844773e-03	1.793656e+00	1.793725e+00	0.000000e+00	
516	9.864773e-03	1.793656e+00	1.793725e+00	0.000000e+00	
517	9.884773e-03	1.793656e+00	1.793725e+00	0.000000e+00	
518	9.904773e-03	1.793656e+00	1.793725e+00	0.000000e+00	

Index   time            v(vu1)          v(vu3)          v(bootmode)     
--------------------------------------------------------------------------------
519	9.924773e-03	1.793656e+00	1.793725e+00	0.000000e+00	
520	9.944773e-03	1.793656e+00	1.793725e+00	0.000000e+00	
521	9.964773e-03	1.793656e+00	1.793725e+00	0.000000e+00	
522	9.984773e-03	1.793656e+00	1.793725e+00	0.000000e+00	
523	1.000477e-02	1.793656e+00	1.793725e+00	0.000000e+00	
524	1.002477e-02	1.793656e+00	1.793725e+00	0.000000e+00	
525	1.004477e-02	1.793656e+00	1.793725e+00	0.000000e+00	
526	1.006477e-02	1.793656e+00	1.793725e+00	0.000000e+00	
527	1.008477e-02	1.793656e+00	1.793725e+00	0.000000e+00	
528	1.010477e-02	1.793656e+00	1.793725e+00	0.000000e+00	
529	1.012477e-02	1.793656e+00	1.793725e+00	0.000000e+00	
530	1.014477e-02	1.793656e+00	1.793725e+00	0.000000e+00	
531	1.016477e-02	1.793656e+00	1.793725e+00	0.000000e+00	
532	1.018477e-02	1.793656e+00	1.793725e+00	0.000000e+00	
533	1.020477e-02	1.793656e+00	1.793725e+00	0.000000e+00	
534	1.022477e-02	1.793656e+00	1.793725e+00	0.000000e+00	
535	1.024477e-02	1.793656e+00	1.793725e+00	0.000000e+00	
536	1.026477e-02	1.793656e+00	1.793725e+00	0.000000e+00	
537	1.028477e-02	1.793656e+00	1.793725e+00	0.000000e+00	
538	1.030477e-02	1.793656e+00	1.793725e+00	0.000000e+00	
539	1.032477e-02	1.793656e+00	1.793725e+00	0.000000e+00	
540	1.034477e-02	1.793656e+00	1.793725e+00	0.000000e+00	
541	1.036477e-02	1.793656e+00	1.793725e+00	0.000000e+00	
542	1.038477e-02	1.793656e+00	1.793725e+00	0.000000e+00	
543	1.040477e-02	1.793656e+00	1.793725e+00	0.000000e+00	
544	1.042477e-02	1.793656e+00	1.793725e+00	0.000000e+00	
545	1.044477e-02	1.793656e+00	1.793725e+00	0.000000e+00	
546	1.046477e-02	1.793656e+00	1.793725e+00	0.000000e+00	
547	1.048477e-02	1.793656e+00	1.793725e+00	0.000000e+00	
548	1.050477e-02	1.793656e+00	1.793725e+00	0.000000e+00	
549	1.052477e-02	1.793656e+00	1.793725e+00	0.000000e+00	
550	1.054477e-02	1.793656e+00	1.793725e+00	0.000000e+00	
551	1.056477e-02	1.793656e+00	1.793725e+00	0.000000e+00	
552	1.058477e-02	1.793656e+00	1.793725e+00	0.000000e+00	
553	1.060477e-02	1.793656e+00	1.793725e+00	0.000000e+00	
554	1.062477e-02	1.793656e+00	1.793725e+00	0.000000e+00	
555	1.064477e-02	1.793656e+00	1.793725e+00	0.000000e+00	
556	1.066477e-02	1.793656e+00	1.793725e+00	0.000000e+00	
557	1.068477e-02	1.793656e+00	1.793725e+00	0.000000e+00	
558	1.070477e-02	1.793656e+00	1.793725e+00	0.000000e+00	
559	1.072477e-02	1.793656e+00	1.793725e+00	0.000000e+00	
560	1.074477e-02	1.793656e+00	1.793725e+00	0.000000e+00	
561	1.076477e-02	1.793656e+00	1.793725e+00	0.000000e+00	
562	1.078477e-02	1.793656e+00	1.793725e+00	0.000000e+00	
563	1.080477e-02	1.793656e+00	1.793725e+00	0.000000e+00	
564	1.082477e-02	1.793656e+00	1.793725e+00	0.000000e+00	
565	1.084477e-02	1.793656e+00	1.793725e+00	0.000000e+00	
566	1.086477e-02	1.793656e+00	1.793725e+00	0.000000e+00	
567	1.088477e-02	1.793656e+00	1.793725e+00	0.000000e+00	
568	1.090477e-02	1.793656e+00	1.793725e+00	0.000000e+00	
569	1.092477e-02	1.793656e+00	1.793725e+00	0.000000e+00	
570	1.094477e-02	1.793656e+00	1.793725e+00	0.000000e+00	
571	1.096477e-02	1.793656e+00	1.793725e+00	0.000000e+00	
572	1.098477e-02	1.793656e+00	1.793725e+00	0.000000e+00	
573	1.100477e-02	1.793656e+00	1.793725e+00	0.000000e+00	
574	1.102477e-02	1.793656e+00	1.793725e+00	0.000000e+00	
575	1.104477e-02	1.793656e+00	1.793725e+00	0.000000e+00	
576	1.106477e-02	1.793656e+00	1.793725e+00	0.000000e+00	

Index   time            v(vu1)          v(vu3)          v(bootmode)     
--------------------------------------------------------------------------------
577	1.108477e-02	1.793656e+00	1.793725e+00	0.000000e+00	
578	1.110477e-02	1.793656e+00	1.793725e+00	0.000000e+00	
579	1.112477e-02	1.793656e+00	1.793725e+00	0.000000e+00	
580	1.114477e-02	1.793656e+00	1.793725e+00	0.000000e+00	
581	1.116477e-02	1.793656e+00	1.793725e+00	0.000000e+00	
582	1.118477e-02	1.793656e+00	1.793725e+00	0.000000e+00	
583	1.120477e-02	1.793656e+00	1.793725e+00	0.000000e+00	
584	1.122477e-02	1.793656e+00	1.793725e+00	0.000000e+00	
585	1.124477e-02	1.793656e+00	1.793725e+00	0.000000e+00	
586	1.126477e-02	1.793656e+00	1.793725e+00	0.000000e+00	
587	1.128477e-02	1.793656e+00	1.793725e+00	0.000000e+00	
588	1.130477e-02	1.793656e+00	1.793725e+00	0.000000e+00	
589	1.132477e-02	1.793656e+00	1.793725e+00	0.000000e+00	
590	1.134477e-02	1.793656e+00	1.793725e+00	0.000000e+00	
591	1.136477e-02	1.793656e+00	1.793725e+00	0.000000e+00	
592	1.138477e-02	1.793656e+00	1.793725e+00	0.000000e+00	
593	1.140477e-02	1.793656e+00	1.793725e+00	0.000000e+00	
594	1.142477e-02	1.793656e+00	1.793725e+00	0.000000e+00	
595	1.144477e-02	1.793656e+00	1.793725e+00	0.000000e+00	
596	1.146477e-02	1.793656e+00	1.793725e+00	0.000000e+00	
597	1.148477e-02	1.793656e+00	1.793725e+00	0.000000e+00	
598	1.150477e-02	1.793656e+00	1.793725e+00	0.000000e+00	
599	1.152477e-02	1.793656e+00	1.793725e+00	0.000000e+00	
600	1.154477e-02	1.793656e+00	1.793725e+00	0.000000e+00	
601	1.156477e-02	1.793656e+00	1.793725e+00	0.000000e+00	
602	1.158477e-02	1.793656e+00	1.793725e+00	0.000000e+00	
603	1.160477e-02	1.793656e+00	1.793725e+00	0.000000e+00	
604	1.162477e-02	1.793656e+00	1.793725e+00	0.000000e+00	
605	1.164477e-02	1.793656e+00	1.793725e+00	0.000000e+00	
606	1.166477e-02	1.793656e+00	1.793725e+00	0.000000e+00	
607	1.168477e-02	1.793656e+00	1.793725e+00	0.000000e+00	
608	1.170477e-02	1.793656e+00	1.793725e+00	0.000000e+00	
609	1.172477e-02	1.793656e+00	1.793725e+00	0.000000e+00	
610	1.174477e-02	1.793656e+00	1.793725e+00	0.000000e+00	
611	1.176477e-02	1.793656e+00	1.793725e+00	0.000000e+00	
612	1.178477e-02	1.793656e+00	1.793725e+00	0.000000e+00	
613	1.180477e-02	1.793656e+00	1.793725e+00	0.000000e+00	
614	1.182477e-02	1.793656e+00	1.793725e+00	0.000000e+00	
615	1.184477e-02	1.793656e+00	1.793725e+00	0.000000e+00	
616	1.186477e-02	1.793656e+00	1.793725e+00	0.000000e+00	
617	1.188477e-02	1.793656e+00	1.793725e+00	0.000000e+00	
618	1.190477e-02	1.793656e+00	1.793725e+00	0.000000e+00	
619	1.192477e-02	1.793656e+00	1.793725e+00	0.000000e+00	
620	1.194477e-02	1.793656e+00	1.793725e+00	0.000000e+00	
621	1.196477e-02	1.793656e+00	1.793725e+00	0.000000e+00	
622	1.198477e-02	1.793656e+00	1.793725e+00	0.000000e+00	
623	1.200000e-02	1.793656e+00	1.793725e+00	0.000000e+00	

                      tb001-ga144-test-bringup-spi-enabled
                      Transient Analysis  Sat Jun 13 17:42:20  2026
--------------------------------------------------------------------------------
Index   time            v(enable_hold)  v(reset_assert) v(reset_hold)   
--------------------------------------------------------------------------------
0	0.000000e+00	3.300000e+00	3.300000e+00	8.233615e-05	
1	2.000000e-07	3.300000e+00	3.300000e+00	8.233615e-05	
2	4.000000e-07	3.300000e+00	3.300000e+00	8.233615e-05	
3	8.000000e-07	3.300000e+00	3.300000e+00	8.233615e-05	
4	1.600000e-06	3.300000e+00	3.300000e+00	8.233615e-05	
5	3.200000e-06	3.300000e+00	3.300000e+00	8.233615e-05	
6	6.400000e-06	3.300000e+00	3.300000e+00	8.233615e-05	
7	1.280000e-05	3.300000e+00	3.300000e+00	8.233615e-05	
8	2.560000e-05	3.300000e+00	3.300000e+00	8.233615e-05	
9	4.560000e-05	3.300000e+00	3.300000e+00	8.233615e-05	
10	6.560000e-05	3.300000e+00	3.300000e+00	8.233615e-05	
11	8.560000e-05	3.300000e+00	3.300000e+00	8.233615e-05	
12	1.056000e-04	3.300000e+00	3.300000e+00	8.233615e-05	
13	1.256000e-04	3.300000e+00	3.300000e+00	8.233615e-05	
14	1.456000e-04	3.300000e+00	3.300000e+00	8.233615e-05	
15	1.656000e-04	3.300000e+00	3.300000e+00	8.233615e-05	
16	1.856000e-04	3.300000e+00	3.300000e+00	8.233615e-05	
17	2.056000e-04	3.300000e+00	3.300000e+00	8.233615e-05	
18	2.256000e-04	3.300000e+00	3.300000e+00	8.233615e-05	
19	2.456000e-04	3.300000e+00	3.300000e+00	8.233615e-05	
20	2.656000e-04	3.300000e+00	3.300000e+00	8.233615e-05	
21	2.856000e-04	3.300000e+00	3.300000e+00	8.233615e-05	
22	3.056000e-04	3.300000e+00	3.300000e+00	8.233615e-05	
23	3.256000e-04	3.300000e+00	3.300000e+00	8.233615e-05	
24	3.456000e-04	3.300000e+00	3.300000e+00	8.233615e-05	
25	3.656000e-04	3.300000e+00	3.300000e+00	8.233615e-05	
26	3.856000e-04	3.300000e+00	3.300000e+00	8.233615e-05	
27	4.056000e-04	3.300000e+00	3.300000e+00	8.233615e-05	
28	4.256000e-04	3.300000e+00	3.300000e+00	8.233615e-05	
29	4.456000e-04	3.300000e+00	3.300000e+00	8.233615e-05	
30	4.656000e-04	3.300000e+00	3.300000e+00	8.233615e-05	
31	4.856000e-04	3.300000e+00	3.300000e+00	8.233615e-05	
32	5.056000e-04	3.300000e+00	3.300000e+00	8.233615e-05	
33	5.256000e-04	3.300000e+00	3.300000e+00	8.233615e-05	
34	5.456000e-04	3.300000e+00	3.300000e+00	8.233615e-05	
35	5.656000e-04	3.300000e+00	3.300000e+00	8.233615e-05	
36	5.856000e-04	3.300000e+00	3.300000e+00	8.233615e-05	
37	6.056000e-04	3.300000e+00	3.300000e+00	8.233615e-05	
38	6.256000e-04	3.300000e+00	3.300000e+00	8.233615e-05	
39	6.456000e-04	3.300000e+00	3.300000e+00	8.233615e-05	
40	6.656000e-04	3.300000e+00	3.300000e+00	8.233615e-05	
41	6.856000e-04	3.300000e+00	3.300000e+00	8.233615e-05	
42	7.056000e-04	3.300000e+00	3.300000e+00	8.233615e-05	
43	7.256000e-04	3.300000e+00	3.300000e+00	8.233615e-05	
44	7.456000e-04	3.300000e+00	3.300000e+00	8.233615e-05	
45	7.656000e-04	3.300000e+00	3.300000e+00	8.233615e-05	
46	7.856000e-04	3.300000e+00	3.300000e+00	8.233615e-05	
47	8.056000e-04	3.300000e+00	3.300000e+00	8.233615e-05	
48	8.256000e-04	3.300000e+00	3.300000e+00	8.233615e-05	
49	8.456000e-04	3.300000e+00	3.300000e+00	8.233615e-05	
50	8.656000e-04	3.300000e+00	3.300000e+00	8.233615e-05	
51	8.856000e-04	3.300000e+00	3.300000e+00	8.233615e-05	
52	9.056000e-04	3.300000e+00	3.300000e+00	8.233615e-05	
53	9.256000e-04	3.300000e+00	3.300000e+00	8.233615e-05	
54	9.456000e-04	3.300000e+00	3.300000e+00	8.233615e-05	

Index   time            v(enable_hold)  v(reset_assert) v(reset_hold)   
--------------------------------------------------------------------------------
55	9.656000e-04	3.300000e+00	3.300000e+00	8.233615e-05	
56	9.856000e-04	3.300000e+00	3.300000e+00	8.233615e-05	
57	1.000000e-03	3.300000e+00	3.300000e+00	8.233615e-05	
58	1.002000e-03	2.970000e+00	3.300000e+00	8.233615e-05	
[...]
288	5.304773e-03	1.770628e+00	1.784855e+00	1.787286e+00	
289	5.324773e-03	1.770628e+00	1.784855e+00	1.787286e+00	
290	5.344773e-03	1.770628e+00	1.784855e+00	1.787286e+00	
291	5.364773e-03	1.770628e+00	1.784855e+00	1.787286e+00	
292	5.384773e-03	1.770628e+00	1.784855e+00	1.787286e+00	
293	5.404773e-03	1.770628e+00	1.784855e+00	1.787286e+00	
294	5.424773e-03	1.770628e+00	1.784855e+00	1.787286e+00	
295	5.444773e-03	1.770628e+00	1.784855e+00	1.787286e+00	
296	5.464773e-03	1.770628e+00	1.784855e+00	1.787286e+00	
297	5.484773e-03	1.770628e+00	1.784855e+00	1.787286e+00	
298	5.504773e-03	1.770628e+00	1.784855e+00	1.787286e+00	
299	5.524773e-03	1.770628e+00	1.784855e+00	1.787286e+00	
300	5.544773e-03	1.770628e+00	1.784855e+00	1.787286e+00	
301	5.564773e-03	1.770628e+00	1.784855e+00	1.787286e+00	
302	5.584773e-03	1.770628e+00	1.784855e+00	1.787286e+00	
303	5.604773e-03	1.770628e+00	1.784855e+00	1.787286e+00	
304	5.624773e-03	1.770628e+00	1.784855e+00	1.787286e+00	
305	5.644773e-03	1.770628e+00	1.784855e+00	1.787286e+00	
306	5.664773e-03	1.770628e+00	1.784855e+00	1.787286e+00	
307	5.684773e-03	1.770628e+00	1.784855e+00	1.787286e+00	
308	5.704773e-03	1.770628e+00	1.784855e+00	1.787286e+00	
309	5.724773e-03	1.770628e+00	1.784855e+00	1.787286e+00	
310	5.744773e-03	1.770628e+00	1.784855e+00	1.787286e+00	
311	5.764773e-03	1.770628e+00	1.784855e+00	1.787286e+00	
312	5.784773e-03	1.770628e+00	1.784855e+00	1.787286e+00	
313	5.804773e-03	1.770628e+00	1.784855e+00	1.787286e+00	
314	5.824773e-03	1.770628e+00	1.784855e+00	1.787286e+00	
315	5.844773e-03	1.770628e+00	1.784855e+00	1.787286e+00	
316	5.864773e-03	1.770628e+00	1.784855e+00	1.787286e+00	
317	5.884773e-03	1.770628e+00	1.784855e+00	1.787286e+00	
318	5.904773e-03	1.770628e+00	1.784855e+00	1.787286e+00	
319	5.924773e-03	1.770628e+00	1.784855e+00	1.787286e+00	
320	5.944773e-03	1.770628e+00	1.784855e+00	1.787286e+00	
321	5.964773e-03	1.770628e+00	1.784855e+00	1.787286e+00	
322	5.984773e-03	1.770628e+00	1.784855e+00	1.787286e+00	
323	6.004773e-03	1.770628e+00	1.784855e+00	1.787286e+00	
324	6.024773e-03	1.770628e+00	1.784855e+00	1.787286e+00	
325	6.044773e-03	1.770628e+00	1.784855e+00	1.787286e+00	
326	6.064773e-03	1.770628e+00	1.784855e+00	1.787286e+00	
327	6.084773e-03	1.770628e+00	1.784855e+00	1.787286e+00	
328	6.104773e-03	1.770628e+00	1.784855e+00	1.787286e+00	
329	6.124773e-03	1.770628e+00	1.784855e+00	1.787286e+00	
330	6.144773e-03	1.770628e+00	1.784855e+00	1.787286e+00	
331	6.164773e-03	1.770628e+00	1.784855e+00	1.787286e+00	
332	6.184773e-03	1.770628e+00	1.784855e+00	1.787286e+00	
333	6.204773e-03	1.770628e+00	1.784855e+00	1.787286e+00	
334	6.224773e-03	1.770628e+00	1.784855e+00	1.787286e+00	
335	6.244773e-03	1.770628e+00	1.784855e+00	1.787286e+00	
336	6.264773e-03	1.770628e+00	1.784855e+00	1.787286e+00	
337	6.284773e-03	1.770628e+00	1.784855e+00	1.787286e+00	
338	6.304773e-03	1.770628e+00	1.784855e+00	1.787286e+00	
339	6.324773e-03	1.770628e+00	1.784855e+00	1.787286e+00	
340	6.344773e-03	1.770628e+00	1.784855e+00	1.787286e+00	
341	6.364773e-03	1.770628e+00	1.784855e+00	1.787286e+00	
342	6.384773e-03	1.770628e+00	1.784855e+00	1.787286e+00	
343	6.404773e-03	1.770628e+00	1.784855e+00	1.787286e+00	
344	6.424773e-03	1.770628e+00	1.784855e+00	1.787286e+00	

Index   time            v(vcore)        v(vio)          v(van)          
--------------------------------------------------------------------------------
345	6.444773e-03	1.770628e+00	1.784855e+00	1.787286e+00	
346	6.464773e-03	1.770628e+00	1.784855e+00	1.787286e+00	
347	6.484773e-03	1.770628e+00	1.784855e+00	1.787286e+00	
348	6.504773e-03	1.770628e+00	1.784855e+00	1.787286e+00	
349	6.524773e-03	1.770628e+00	1.784855e+00	1.787286e+00	
350	6.544773e-03	1.770628e+00	1.784855e+00	1.787286e+00	
351	6.564773e-03	1.770628e+00	1.784855e+00	1.787286e+00	
352	6.584773e-03	1.770628e+00	1.784855e+00	1.787286e+00	
353	6.604773e-03	1.770628e+00	1.784855e+00	1.787286e+00	
354	6.624773e-03	1.770628e+00	1.784855e+00	1.787286e+00	
355	6.644773e-03	1.770628e+00	1.784855e+00	1.787286e+00	
356	6.664773e-03	1.770628e+00	1.784855e+00	1.787286e+00	
357	6.684773e-03	1.770628e+00	1.784855e+00	1.787286e+00	
358	6.704773e-03	1.770628e+00	1.784855e+00	1.787286e+00	
359	6.724773e-03	1.770628e+00	1.784855e+00	1.787286e+00	
360	6.744773e-03	1.770628e+00	1.784855e+00	1.787286e+00	
361	6.764773e-03	1.770628e+00	1.784855e+00	1.787286e+00	
362	6.784773e-03	1.770628e+00	1.784855e+00	1.787286e+00	
363	6.804773e-03	1.770628e+00	1.784855e+00	1.787286e+00	
364	6.824773e-03	1.770628e+00	1.784855e+00	1.787286e+00	
365	6.844773e-03	1.770628e+00	1.784855e+00	1.787286e+00	
366	6.864773e-03	1.770628e+00	1.784855e+00	1.787286e+00	
367	6.884773e-03	1.770628e+00	1.784855e+00	1.787286e+00	
368	6.904773e-03	1.770628e+00	1.784855e+00	1.787286e+00	
369	6.924773e-03	1.770628e+00	1.784855e+00	1.787286e+00	
370	6.944773e-03	1.770628e+00	1.784855e+00	1.787286e+00	
371	6.964773e-03	1.770628e+00	1.784855e+00	1.787286e+00	
372	6.984773e-03	1.770628e+00	1.784855e+00	1.787286e+00	
373	7.004773e-03	1.770628e+00	1.784855e+00	1.787286e+00	
374	7.024773e-03	1.770628e+00	1.784855e+00	1.787286e+00	
375	7.044773e-03	1.770628e+00	1.784855e+00	1.787286e+00	
376	7.064773e-03	1.770628e+00	1.784855e+00	1.787286e+00	
377	7.084773e-03	1.770628e+00	1.784855e+00	1.787286e+00	
378	7.104773e-03	1.770628e+00	1.784855e+00	1.787286e+00	
379	7.124773e-03	1.770628e+00	1.784855e+00	1.787286e+00	
380	7.144773e-03	1.770628e+00	1.784855e+00	1.787286e+00	
381	7.164773e-03	1.770628e+00	1.784855e+00	1.787286e+00	
382	7.184773e-03	1.770628e+00	1.784855e+00	1.787286e+00	
383	7.204773e-03	1.770628e+00	1.784855e+00	1.787286e+00	
384	7.224773e-03	1.770628e+00	1.784855e+00	1.787286e+00	
385	7.244773e-03	1.770628e+00	1.784855e+00	1.787286e+00	
386	7.264773e-03	1.770628e+00	1.784855e+00	1.787286e+00	
387	7.284773e-03	1.770628e+00	1.784855e+00	1.787286e+00	
388	7.304773e-03	1.770628e+00	1.784855e+00	1.787286e+00	
389	7.324773e-03	1.770628e+00	1.784855e+00	1.787286e+00	
390	7.344773e-03	1.770628e+00	1.784855e+00	1.787286e+00	
391	7.364773e-03	1.770628e+00	1.784855e+00	1.787286e+00	
392	7.384773e-03	1.770628e+00	1.784855e+00	1.787286e+00	
393	7.404773e-03	1.770628e+00	1.784855e+00	1.787286e+00	
394	7.424773e-03	1.770628e+00	1.784855e+00	1.787286e+00	
395	7.444773e-03	1.770628e+00	1.784855e+00	1.787286e+00	
396	7.464773e-03	1.770628e+00	1.784855e+00	1.787286e+00	
397	7.484773e-03	1.770628e+00	1.784855e+00	1.787286e+00	
398	7.504773e-03	1.770628e+00	1.784855e+00	1.787286e+00	
399	7.524773e-03	1.770628e+00	1.784855e+00	1.787286e+00	
400	7.544773e-03	1.770628e+00	1.784855e+00	1.787286e+00	
401	7.564773e-03	1.770628e+00	1.784855e+00	1.787286e+00	
402	7.584773e-03	1.770628e+00	1.784855e+00	1.787286e+00	

Index   time            v(vcore)        v(vio)          v(van)          
--------------------------------------------------------------------------------
403	7.604773e-03	1.770628e+00	1.784855e+00	1.787286e+00	
404	7.624773e-03	1.770628e+00	1.784855e+00	1.787286e+00	
405	7.644773e-03	1.770628e+00	1.784855e+00	1.787286e+00	
406	7.664773e-03	1.770628e+00	1.784855e+00	1.787286e+00	
407	7.684773e-03	1.770628e+00	1.784855e+00	1.787286e+00	
408	7.704773e-03	1.770628e+00	1.784855e+00	1.787286e+00	
409	7.724773e-03	1.770628e+00	1.784855e+00	1.787286e+00	
410	7.744773e-03	1.770628e+00	1.784855e+00	1.787286e+00	
411	7.764773e-03	1.770628e+00	1.784855e+00	1.787286e+00	
412	7.784773e-03	1.770628e+00	1.784855e+00	1.787286e+00	
413	7.804773e-03	1.770628e+00	1.784855e+00	1.787286e+00	
414	7.824773e-03	1.770628e+00	1.784855e+00	1.787286e+00	
415	7.844773e-03	1.770628e+00	1.784855e+00	1.787286e+00	
416	7.864773e-03	1.770628e+00	1.784855e+00	1.787286e+00	
417	7.884773e-03	1.770628e+00	1.784855e+00	1.787286e+00	
418	7.904773e-03	1.770628e+00	1.784855e+00	1.787286e+00	
419	7.924773e-03	1.770628e+00	1.784855e+00	1.787286e+00	
420	7.944773e-03	1.770628e+00	1.784855e+00	1.787286e+00	
421	7.964773e-03	1.770628e+00	1.784855e+00	1.787286e+00	
422	7.984773e-03	1.770628e+00	1.784855e+00	1.787286e+00	
423	8.004773e-03	1.770628e+00	1.784855e+00	1.787286e+00	
424	8.024773e-03	1.770628e+00	1.784855e+00	1.787286e+00	
425	8.044773e-03	1.770628e+00	1.784855e+00	1.787286e+00	
426	8.064773e-03	1.770628e+00	1.784855e+00	1.787286e+00	
427	8.084773e-03	1.770628e+00	1.784855e+00	1.787286e+00	
428	8.104773e-03	1.770628e+00	1.784855e+00	1.787286e+00	
429	8.124773e-03	1.770628e+00	1.784855e+00	1.787286e+00	
430	8.144773e-03	1.770628e+00	1.784855e+00	1.787286e+00	
431	8.164773e-03	1.770628e+00	1.784855e+00	1.787286e+00	
432	8.184773e-03	1.770628e+00	1.784855e+00	1.787286e+00	
433	8.204773e-03	1.770628e+00	1.784855e+00	1.787286e+00	
434	8.224773e-03	1.770628e+00	1.784855e+00	1.787286e+00	
435	8.244773e-03	1.770628e+00	1.784855e+00	1.787286e+00	
436	8.264773e-03	1.770628e+00	1.784855e+00	1.787286e+00	
437	8.284773e-03	1.770628e+00	1.784855e+00	1.787286e+00	
438	8.304773e-03	1.770628e+00	1.784855e+00	1.787286e+00	
439	8.324773e-03	1.770628e+00	1.784855e+00	1.787286e+00	
440	8.344773e-03	1.770628e+00	1.784855e+00	1.787286e+00	
441	8.364773e-03	1.770628e+00	1.784855e+00	1.787286e+00	
442	8.384773e-03	1.770628e+00	1.784855e+00	1.787286e+00	
443	8.404773e-03	1.770628e+00	1.784855e+00	1.787286e+00	
444	8.424773e-03	1.770628e+00	1.784855e+00	1.787286e+00	
445	8.444773e-03	1.770628e+00	1.784855e+00	1.787286e+00	
446	8.464773e-03	1.770628e+00	1.784855e+00	1.787286e+00	
447	8.484773e-03	1.770628e+00	1.784855e+00	1.787286e+00	
448	8.504773e-03	1.770628e+00	1.784855e+00	1.787286e+00	
449	8.524773e-03	1.770628e+00	1.784855e+00	1.787286e+00	
450	8.544773e-03	1.770628e+00	1.784855e+00	1.787286e+00	
451	8.564773e-03	1.770628e+00	1.784855e+00	1.787286e+00	
452	8.584773e-03	1.770628e+00	1.784855e+00	1.787286e+00	
453	8.604773e-03	1.770628e+00	1.784855e+00	1.787286e+00	
454	8.624773e-03	1.770628e+00	1.784855e+00	1.787286e+00	
455	8.644773e-03	1.770628e+00	1.784855e+00	1.787286e+00	
456	8.664773e-03	1.770628e+00	1.784855e+00	1.787286e+00	
457	8.684773e-03	1.770628e+00	1.784855e+00	1.787286e+00	
458	8.704773e-03	1.770628e+00	1.784855e+00	1.787286e+00	
459	8.724773e-03	1.770628e+00	1.784855e+00	1.787286e+00	
460	8.744773e-03	1.770628e+00	1.784855e+00	1.787286e+00	

Index   time            v(vcore)        v(vio)          v(van)          
--------------------------------------------------------------------------------
461	8.764773e-03	1.770628e+00	1.784855e+00	1.787286e+00	
462	8.784773e-03	1.770628e+00	1.784855e+00	1.787286e+00	
463	8.804773e-03	1.770628e+00	1.784855e+00	1.787286e+00	
464	8.824773e-03	1.770628e+00	1.784855e+00	1.787286e+00	
465	8.844773e-03	1.770628e+00	1.784855e+00	1.787286e+00	
466	8.864773e-03	1.770628e+00	1.784855e+00	1.787286e+00	
467	8.884773e-03	1.770628e+00	1.784855e+00	1.787286e+00	
468	8.904773e-03	1.770628e+00	1.784855e+00	1.787286e+00	
469	8.924773e-03	1.770628e+00	1.784855e+00	1.787286e+00	
470	8.944773e-03	1.770628e+00	1.784855e+00	1.787286e+00	
471	8.964773e-03	1.770628e+00	1.784855e+00	1.787286e+00	
472	8.984773e-03	1.770628e+00	1.784855e+00	1.787286e+00	
473	9.004773e-03	1.770628e+00	1.784855e+00	1.787286e+00	
474	9.024773e-03	1.770628e+00	1.784855e+00	1.787286e+00	
475	9.044773e-03	1.770628e+00	1.784855e+00	1.787286e+00	
476	9.064773e-03	1.770628e+00	1.784855e+00	1.787286e+00	
477	9.084773e-03	1.770628e+00	1.784855e+00	1.787286e+00	
478	9.104773e-03	1.770628e+00	1.784855e+00	1.787286e+00	
479	9.124773e-03	1.770628e+00	1.784855e+00	1.787286e+00	
480	9.144773e-03	1.770628e+00	1.784855e+00	1.787286e+00	
481	9.164773e-03	1.770628e+00	1.784855e+00	1.787286e+00	
482	9.184773e-03	1.770628e+00	1.784855e+00	1.787286e+00	
483	9.204773e-03	1.770628e+00	1.784855e+00	1.787286e+00	
484	9.224773e-03	1.770628e+00	1.784855e+00	1.787286e+00	
485	9.244773e-03	1.770628e+00	1.784855e+00	1.787286e+00	
486	9.264773e-03	1.770628e+00	1.784855e+00	1.787286e+00	
487	9.284773e-03	1.770628e+00	1.784855e+00	1.787286e+00	
488	9.304773e-03	1.770628e+00	1.784855e+00	1.787286e+00	
489	9.324773e-03	1.770628e+00	1.784855e+00	1.787286e+00	
490	9.344773e-03	1.770628e+00	1.784855e+00	1.787286e+00	
491	9.364773e-03	1.770628e+00	1.784855e+00	1.787286e+00	
492	9.384773e-03	1.770628e+00	1.784855e+00	1.787286e+00	
493	9.404773e-03	1.770628e+00	1.784855e+00	1.787286e+00	
494	9.424773e-03	1.770628e+00	1.784855e+00	1.787286e+00	
495	9.444773e-03	1.770628e+00	1.784855e+00	1.787286e+00	
496	9.464773e-03	1.770628e+00	1.784855e+00	1.787286e+00	
497	9.484773e-03	1.770628e+00	1.784855e+00	1.787286e+00	
498	9.504773e-03	1.770628e+00	1.784855e+00	1.787286e+00	
499	9.524773e-03	1.770628e+00	1.784855e+00	1.787286e+00	
500	9.544773e-03	1.770628e+00	1.784855e+00	1.787286e+00	
501	9.564773e-03	1.770628e+00	1.784855e+00	1.787286e+00	
502	9.584773e-03	1.770628e+00	1.784855e+00	1.787286e+00	
503	9.604773e-03	1.770628e+00	1.784855e+00	1.787286e+00	
504	9.624773e-03	1.770628e+00	1.784855e+00	1.787286e+00	
505	9.644773e-03	1.770628e+00	1.784855e+00	1.787286e+00	
506	9.664773e-03	1.770628e+00	1.784855e+00	1.787286e+00	
507	9.684773e-03	1.770628e+00	1.784855e+00	1.787286e+00	
508	9.704773e-03	1.770628e+00	1.784855e+00	1.787286e+00	
509	9.724773e-03	1.770628e+00	1.784855e+00	1.787286e+00	
510	9.744773e-03	1.770628e+00	1.784855e+00	1.787286e+00	
511	9.764773e-03	1.770628e+00	1.784855e+00	1.787286e+00	
512	9.784773e-03	1.770628e+00	1.784855e+00	1.787286e+00	
513	9.804773e-03	1.770628e+00	1.784855e+00	1.787286e+00	
514	9.824773e-03	1.770628e+00	1.784855e+00	1.787286e+00	
515	9.844773e-03	1.770628e+00	1.784855e+00	1.787286e+00	
516	9.864773e-03	1.770628e+00	1.784855e+00	1.787286e+00	
517	9.884773e-03	1.770628e+00	1.784855e+00	1.787286e+00	
518	9.904773e-03	1.770628e+00	1.784855e+00	1.787286e+00	

Index   time            v(vcore)        v(vio)          v(van)          
--------------------------------------------------------------------------------
519	9.924773e-03	1.770628e+00	1.784855e+00	1.787286e+00	
520	9.944773e-03	1.770628e+00	1.784855e+00	1.787286e+00	
521	9.964773e-03	1.770628e+00	1.784855e+00	1.787286e+00	
522	9.984773e-03	1.770628e+00	1.784855e+00	1.787286e+00	
523	1.000477e-02	1.770628e+00	1.784855e+00	1.787286e+00	
524	1.002477e-02	1.770628e+00	1.784855e+00	1.787286e+00	
525	1.004477e-02	1.770628e+00	1.784855e+00	1.787286e+00	
526	1.006477e-02	1.770628e+00	1.784855e+00	1.787286e+00	
527	1.008477e-02	1.770628e+00	1.784855e+00	1.787286e+00	
528	1.010477e-02	1.770628e+00	1.784855e+00	1.787286e+00	
529	1.012477e-02	1.770628e+00	1.784855e+00	1.787286e+00	
530	1.014477e-02	1.770628e+00	1.784855e+00	1.787286e+00	
531	1.016477e-02	1.770628e+00	1.784855e+00	1.787286e+00	
532	1.018477e-02	1.770628e+00	1.784855e+00	1.787286e+00	
533	1.020477e-02	1.770628e+00	1.784855e+00	1.787286e+00	
534	1.022477e-02	1.770628e+00	1.784855e+00	1.787286e+00	
535	1.024477e-02	1.770628e+00	1.784855e+00	1.787286e+00	
536	1.026477e-02	1.770628e+00	1.784855e+00	1.787286e+00	
537	1.028477e-02	1.770628e+00	1.784855e+00	1.787286e+00	
538	1.030477e-02	1.770628e+00	1.784855e+00	1.787286e+00	
539	1.032477e-02	1.770628e+00	1.784855e+00	1.787286e+00	
540	1.034477e-02	1.770628e+00	1.784855e+00	1.787286e+00	
541	1.036477e-02	1.770628e+00	1.784855e+00	1.787286e+00	
542	1.038477e-02	1.770628e+00	1.784855e+00	1.787286e+00	
543	1.040477e-02	1.770628e+00	1.784855e+00	1.787286e+00	
544	1.042477e-02	1.770628e+00	1.784855e+00	1.787286e+00	
545	1.044477e-02	1.770628e+00	1.784855e+00	1.787286e+00	
546	1.046477e-02	1.770628e+00	1.784855e+00	1.787286e+00	
547	1.048477e-02	1.770628e+00	1.784855e+00	1.787286e+00	
548	1.050477e-02	1.770628e+00	1.784855e+00	1.787286e+00	
549	1.052477e-02	1.770628e+00	1.784855e+00	1.787286e+00	
550	1.054477e-02	1.770628e+00	1.784855e+00	1.787286e+00	
551	1.056477e-02	1.770628e+00	1.784855e+00	1.787286e+00	
552	1.058477e-02	1.770628e+00	1.784855e+00	1.787286e+00	
553	1.060477e-02	1.770628e+00	1.784855e+00	1.787286e+00	
554	1.062477e-02	1.770628e+00	1.784855e+00	1.787286e+00	
555	1.064477e-02	1.770628e+00	1.784855e+00	1.787286e+00	
556	1.066477e-02	1.770628e+00	1.784855e+00	1.787286e+00	
557	1.068477e-02	1.770628e+00	1.784855e+00	1.787286e+00	
558	1.070477e-02	1.770628e+00	1.784855e+00	1.787286e+00	
559	1.072477e-02	1.770628e+00	1.784855e+00	1.787286e+00	
560	1.074477e-02	1.770628e+00	1.784855e+00	1.787286e+00	
561	1.076477e-02	1.770628e+00	1.784855e+00	1.787286e+00	
562	1.078477e-02	1.770628e+00	1.784855e+00	1.787286e+00	
563	1.080477e-02	1.770628e+00	1.784855e+00	1.787286e+00	
564	1.082477e-02	1.770628e+00	1.784855e+00	1.787286e+00	
565	1.084477e-02	1.770628e+00	1.784855e+00	1.787286e+00	
566	1.086477e-02	1.770628e+00	1.784855e+00	1.787286e+00	
567	1.088477e-02	1.770628e+00	1.784855e+00	1.787286e+00	
568	1.090477e-02	1.770628e+00	1.784855e+00	1.787286e+00	
569	1.092477e-02	1.770628e+00	1.784855e+00	1.787286e+00	
570	1.094477e-02	1.770628e+00	1.784855e+00	1.787286e+00	
571	1.096477e-02	1.770628e+00	1.784855e+00	1.787286e+00	
572	1.098477e-02	1.770628e+00	1.784855e+00	1.787286e+00	
573	1.100477e-02	1.770628e+00	1.784855e+00	1.787286e+00	
574	1.102477e-02	1.770628e+00	1.784855e+00	1.787286e+00	
575	1.104477e-02	1.770628e+00	1.784855e+00	1.787286e+00	
576	1.106477e-02	1.770628e+00	1.784855e+00	1.787286e+00	

Index   time            v(vcore)        v(vio)          v(van)          
--------------------------------------------------------------------------------
577	1.108477e-02	1.770628e+00	1.784855e+00	1.787286e+00	
578	1.110477e-02	1.770628e+00	1.784855e+00	1.787286e+00	
579	1.112477e-02	1.770628e+00	1.784855e+00	1.787286e+00	
580	1.114477e-02	1.770628e+00	1.784855e+00	1.787286e+00	
581	1.116477e-02	1.770628e+00	1.784855e+00	1.787286e+00	
582	1.118477e-02	1.770628e+00	1.784855e+00	1.787286e+00	
583	1.120477e-02	1.770628e+00	1.784855e+00	1.787286e+00	
584	1.122477e-02	1.770628e+00	1.784855e+00	1.787286e+00	
585	1.124477e-02	1.770628e+00	1.784855e+00	1.787286e+00	
586	1.126477e-02	1.770628e+00	1.784855e+00	1.787286e+00	
587	1.128477e-02	1.770628e+00	1.784855e+00	1.787286e+00	
588	1.130477e-02	1.770628e+00	1.784855e+00	1.787286e+00	
589	1.132477e-02	1.770628e+00	1.784855e+00	1.787286e+00	
590	1.134477e-02	1.770628e+00	1.784855e+00	1.787286e+00	
591	1.136477e-02	1.770628e+00	1.784855e+00	1.787286e+00	
592	1.138477e-02	1.770628e+00	1.784855e+00	1.787286e+00	
593	1.140477e-02	1.770628e+00	1.784855e+00	1.787286e+00	
594	1.142477e-02	1.770628e+00	1.784855e+00	1.787286e+00	
595	1.144477e-02	1.770628e+00	1.784855e+00	1.787286e+00	
596	1.146477e-02	1.770628e+00	1.784855e+00	1.787286e+00	
597	1.148477e-02	1.770628e+00	1.784855e+00	1.787286e+00	
598	1.150477e-02	1.770628e+00	1.784855e+00	1.787286e+00	
599	1.152477e-02	1.770628e+00	1.784855e+00	1.787286e+00	
600	1.154477e-02	1.770628e+00	1.784855e+00	1.787286e+00	
601	1.156477e-02	1.770628e+00	1.784855e+00	1.787286e+00	
602	1.158477e-02	1.770628e+00	1.784855e+00	1.787286e+00	
603	1.160477e-02	1.770628e+00	1.784855e+00	1.787286e+00	
604	1.162477e-02	1.770628e+00	1.784855e+00	1.787286e+00	
605	1.164477e-02	1.770628e+00	1.784855e+00	1.787286e+00	
606	1.166477e-02	1.770628e+00	1.784855e+00	1.787286e+00	
607	1.168477e-02	1.770628e+00	1.784855e+00	1.787286e+00	
608	1.170477e-02	1.770628e+00	1.784855e+00	1.787286e+00	
609	1.172477e-02	1.770628e+00	1.784855e+00	1.787286e+00	
610	1.174477e-02	1.770628e+00	1.784855e+00	1.787286e+00	
611	1.176477e-02	1.770628e+00	1.784855e+00	1.787286e+00	
612	1.178477e-02	1.770628e+00	1.784855e+00	1.787286e+00	
613	1.180477e-02	1.770628e+00	1.784855e+00	1.787286e+00	
614	1.182477e-02	1.770628e+00	1.784855e+00	1.787286e+00	
615	1.184477e-02	1.770628e+00	1.784855e+00	1.787286e+00	
616	1.186477e-02	1.770628e+00	1.784855e+00	1.787286e+00	
617	1.188477e-02	1.770628e+00	1.784855e+00	1.787286e+00	
618	1.190477e-02	1.770628e+00	1.784855e+00	1.787286e+00	
619	1.192477e-02	1.770628e+00	1.784855e+00	1.787286e+00	
620	1.194477e-02	1.770628e+00	1.784855e+00	1.787286e+00	
621	1.196477e-02	1.770628e+00	1.784855e+00	1.787286e+00	
622	1.198477e-02	1.770628e+00	1.784855e+00	1.787286e+00	
623	1.200000e-02	1.770628e+00	1.784855e+00	1.787286e+00	
ngspice-44.2 done
