
Note: No compatibility mode selected!


Circuit: tb001-ga144-test-bringup

Doing analysis at TEMP = 27.000000 and TNOM = 27.000000

Using SPARSE 1.3 as Direct Linear Solver

Initial Transient Solution
--------------------------

Node                                   Voltage
----                                   -------
vin_src                                    1.8
vdrv                                       3.3
disable                                    3.3
vin_main                                1.7985
vmaster                                 1.7973
gcore                              0.000578734
vcore                             -3.29743e-42
gio                                0.000578734
vio                               -3.23288e-40
gan                                0.000578734
van                               -1.36336e-39
vdis#branch                                  0
vgatedrv#branch                   -0.000210601
vmain1p8#branch                     -0.0299551


No. of Data Rows : 616
                            tb001-ga144-test-bringup
                            Transient Analysis  Sat Jun 13 16:37:14  2026
--------------------------------------------------------------------------------
Index   time            v(vin_main)     v(vmaster)      v(gcore)        
--------------------------------------------------------------------------------
0	0.000000e+00	1.798502e+00	1.797304e+00	5.787345e-04	
1	2.000000e-07	1.798502e+00	1.797304e+00	5.787345e-04	
2	4.000000e-07	1.798502e+00	1.797304e+00	5.787345e-04	
3	8.000000e-07	1.798502e+00	1.797304e+00	5.787345e-04	
4	1.600000e-06	1.798502e+00	1.797304e+00	5.787345e-04	
5	3.200000e-06	1.798502e+00	1.797304e+00	5.787345e-04	
6	6.400000e-06	1.798502e+00	1.797304e+00	5.787345e-04	
7	1.280000e-05	1.798502e+00	1.797304e+00	5.787345e-04	
8	2.560000e-05	1.798502e+00	1.797304e+00	5.787345e-04	
9	4.560000e-05	1.798502e+00	1.797304e+00	5.787345e-04	
10	6.560000e-05	1.798502e+00	1.797304e+00	5.787345e-04	
11	8.560000e-05	1.798502e+00	1.797304e+00	5.787345e-04	
12	1.056000e-04	1.798502e+00	1.797304e+00	5.787345e-04	
13	1.256000e-04	1.798502e+00	1.797304e+00	5.787345e-04	
14	1.456000e-04	1.798502e+00	1.797304e+00	5.787345e-04	
15	1.656000e-04	1.798502e+00	1.797304e+00	5.787345e-04	
16	1.856000e-04	1.798502e+00	1.797304e+00	5.787345e-04	
17	2.056000e-04	1.798502e+00	1.797304e+00	5.787345e-04	
18	2.256000e-04	1.798502e+00	1.797304e+00	5.787345e-04	
19	2.456000e-04	1.798502e+00	1.797304e+00	5.787345e-04	
20	2.656000e-04	1.798502e+00	1.797304e+00	5.787345e-04	
21	2.856000e-04	1.798502e+00	1.797304e+00	5.787345e-04	
22	3.056000e-04	1.798502e+00	1.797304e+00	5.787345e-04	
23	3.256000e-04	1.798502e+00	1.797304e+00	5.787345e-04	
24	3.456000e-04	1.798502e+00	1.797304e+00	5.787345e-04	
25	3.656000e-04	1.798502e+00	1.797304e+00	5.787345e-04	
26	3.856000e-04	1.798502e+00	1.797304e+00	5.787345e-04	
27	4.056000e-04	1.798502e+00	1.797304e+00	5.787345e-04	
28	4.256000e-04	1.798502e+00	1.797304e+00	5.787345e-04	
29	4.456000e-04	1.798502e+00	1.797304e+00	5.787345e-04	
30	4.656000e-04	1.798502e+00	1.797304e+00	5.787345e-04	
31	4.856000e-04	1.798502e+00	1.797304e+00	5.787345e-04	
32	5.056000e-04	1.798502e+00	1.797304e+00	5.787345e-04	
33	5.256000e-04	1.798502e+00	1.797304e+00	5.787345e-04	
34	5.456000e-04	1.798502e+00	1.797304e+00	5.787345e-04	
35	5.656000e-04	1.798502e+00	1.797304e+00	5.787345e-04	
36	5.856000e-04	1.798502e+00	1.797304e+00	5.787345e-04	
37	6.056000e-04	1.798502e+00	1.797304e+00	5.787345e-04	
38	6.256000e-04	1.798502e+00	1.797304e+00	5.787345e-04	
39	6.456000e-04	1.798502e+00	1.797304e+00	5.787345e-04	
40	6.656000e-04	1.798502e+00	1.797304e+00	5.787345e-04	
41	6.856000e-04	1.798502e+00	1.797304e+00	5.787345e-04	
42	7.056000e-04	1.798502e+00	1.797304e+00	5.787345e-04	
43	7.256000e-04	1.798502e+00	1.797304e+00	5.787345e-04	
44	7.456000e-04	1.798502e+00	1.797304e+00	5.787345e-04	
45	7.656000e-04	1.798502e+00	1.797304e+00	5.787345e-04	
46	7.856000e-04	1.798502e+00	1.797304e+00	5.787345e-04	
47	8.056000e-04	1.798502e+00	1.797304e+00	5.787345e-04	
48	8.256000e-04	1.798502e+00	1.797304e+00	5.787345e-04	
49	8.456000e-04	1.798502e+00	1.797304e+00	5.787345e-04	
50	8.656000e-04	1.798502e+00	1.797304e+00	5.787345e-04	
51	8.856000e-04	1.798502e+00	1.797304e+00	5.787345e-04	
52	9.056000e-04	1.798502e+00	1.797304e+00	5.787345e-04	
53	9.256000e-04	1.798502e+00	1.797304e+00	5.787345e-04	
54	9.456000e-04	1.798502e+00	1.797304e+00	5.787345e-04	

Index   time            v(vin_main)     v(vmaster)      v(gcore)        
--------------------------------------------------------------------------------
55	9.656000e-04	1.798502e+00	1.797304e+00	5.787345e-04	
56	9.856000e-04	1.798502e+00	1.797304e+00	5.787345e-04	
57	1.000000e-03	1.798502e+00	1.797304e+00	5.787345e-04	
58	1.002000e-03	1.798502e+00	1.797304e+00	6.605944e-04	
59	1.006000e-03	1.798502e+00	1.797304e+00	9.282520e-04	
60	1.014000e-03	1.798502e+00	1.797304e+00	5.941764e-03	
61	1.020000e-03	1.438660e+00	1.479983e+00	3.300000e+00	
62	1.021411e-03	1.442850e+00	1.450299e+00	3.300000e+00	
63	1.024233e-03	1.527873e+00	1.503401e+00	3.300000e+00	
64	1.029285e-03	1.690962e+00	1.684616e+00	3.300000e+00	
65	1.035274e-03	1.742234e+00	1.739028e+00	3.300000e+00	
66	1.042868e-03	1.775784e+00	1.773063e+00	3.300000e+00	
67	1.056103e-03	1.788436e+00	1.787888e+00	3.300000e+00	
68	1.075985e-03	1.795067e+00	1.793022e+00	3.300000e+00	
69	1.095985e-03	1.793353e+00	1.793008e+00	3.300000e+00	
70	1.115985e-03	1.795092e+00	1.793045e+00	3.300000e+00	
71	1.135985e-03	1.793636e+00	1.793282e+00	3.300000e+00	
72	1.155985e-03	1.794899e+00	1.792877e+00	3.300000e+00	
73	1.175985e-03	1.793794e+00	1.793404e+00	3.300000e+00	
74	1.195985e-03	1.794771e+00	1.792795e+00	3.300000e+00	
75	1.215985e-03	1.793898e+00	1.793457e+00	3.300000e+00	
76	1.235985e-03	1.794686e+00	1.792764e+00	3.300000e+00	
77	1.255985e-03	1.793969e+00	1.793472e+00	3.300000e+00	
78	1.275985e-03	1.794626e+00	1.792761e+00	3.300000e+00	
79	1.295985e-03	1.794020e+00	1.793466e+00	3.300000e+00	
80	1.315985e-03	1.794582e+00	1.792773e+00	3.300000e+00	
81	1.335985e-03	1.794058e+00	1.793449e+00	3.300000e+00	
82	1.355985e-03	1.794548e+00	1.792792e+00	3.300000e+00	
83	1.375985e-03	1.794088e+00	1.793428e+00	3.300000e+00	
84	1.395985e-03	1.794521e+00	1.792815e+00	3.300000e+00	
85	1.415985e-03	1.794113e+00	1.793404e+00	3.300000e+00	
86	1.435985e-03	1.794499e+00	1.792839e+00	3.300000e+00	
87	1.455985e-03	1.794134e+00	1.793381e+00	3.300000e+00	
88	1.475985e-03	1.794479e+00	1.792862e+00	3.300000e+00	
89	1.495985e-03	1.794151e+00	1.793358e+00	3.300000e+00	
90	1.515985e-03	1.794463e+00	1.792884e+00	3.300000e+00	
91	1.535985e-03	1.794167e+00	1.793337e+00	3.300000e+00	
92	1.555985e-03	1.794448e+00	1.792905e+00	3.300000e+00	
93	1.575985e-03	1.794181e+00	1.793317e+00	3.300000e+00	
94	1.595985e-03	1.794435e+00	1.792924e+00	3.300000e+00	
95	1.615985e-03	1.794193e+00	1.793298e+00	3.300000e+00	
96	1.635985e-03	1.794423e+00	1.792942e+00	3.300000e+00	
97	1.655985e-03	1.794204e+00	1.793282e+00	3.300000e+00	
98	1.675985e-03	1.794413e+00	1.792958e+00	3.300000e+00	
99	1.695985e-03	1.794214e+00	1.793266e+00	3.300000e+00	
100	1.715985e-03	1.794403e+00	1.792972e+00	3.300000e+00	
101	1.735985e-03	1.794223e+00	1.793252e+00	3.300000e+00	
102	1.755985e-03	1.794395e+00	1.792985e+00	3.300000e+00	
103	1.775985e-03	1.794232e+00	1.793240e+00	3.300000e+00	
104	1.795985e-03	1.794387e+00	1.792998e+00	3.300000e+00	
105	1.815985e-03	1.794239e+00	1.793228e+00	3.300000e+00	
106	1.835985e-03	1.794380e+00	1.793008e+00	3.300000e+00	
107	1.855985e-03	1.794246e+00	1.793218e+00	3.300000e+00	
108	1.875985e-03	1.794373e+00	1.793018e+00	3.300000e+00	
109	1.895985e-03	1.794252e+00	1.793208e+00	3.300000e+00	
110	1.915985e-03	1.794368e+00	1.793027e+00	3.300000e+00	
111	1.935985e-03	1.794257e+00	1.793200e+00	3.300000e+00	
112	1.955985e-03	1.794362e+00	1.793036e+00	3.300000e+00	

Index   time            v(vin_main)     v(vmaster)      v(gcore)        
--------------------------------------------------------------------------------
113	1.975985e-03	1.794262e+00	1.793192e+00	3.300000e+00	
114	1.995985e-03	1.794358e+00	1.793043e+00	3.300000e+00	
115	2.015985e-03	1.794267e+00	1.793185e+00	3.300000e+00	
116	2.035985e-03	1.794353e+00	1.793050e+00	3.300000e+00	
117	2.055985e-03	1.794271e+00	1.793178e+00	3.300000e+00	
118	2.075985e-03	1.794349e+00	1.793056e+00	3.300000e+00	
119	2.095985e-03	1.794275e+00	1.793173e+00	3.300000e+00	
120	2.115985e-03	1.794346e+00	1.793061e+00	3.300000e+00	
121	2.135985e-03	1.794278e+00	1.793167e+00	3.300000e+00	
122	2.155985e-03	1.794343e+00	1.793067e+00	3.300000e+00	
123	2.175985e-03	1.794281e+00	1.793163e+00	3.300000e+00	
124	2.195985e-03	1.794340e+00	1.793071e+00	3.300000e+00	
125	2.215985e-03	1.794284e+00	1.793158e+00	3.300000e+00	
126	2.235985e-03	1.794337e+00	1.793075e+00	3.300000e+00	
127	2.255985e-03	1.794286e+00	1.793154e+00	3.300000e+00	
128	2.275985e-03	1.794335e+00	1.793079e+00	3.300000e+00	
129	2.295985e-03	1.794289e+00	1.793151e+00	3.300000e+00	
130	2.315985e-03	1.794332e+00	1.793082e+00	3.300000e+00	
131	2.335985e-03	1.794291e+00	1.793147e+00	3.300000e+00	
132	2.355985e-03	1.794330e+00	1.793086e+00	3.300000e+00	
133	2.375985e-03	1.794293e+00	1.793144e+00	3.300000e+00	
134	2.395985e-03	1.794329e+00	1.793088e+00	3.300000e+00	
135	2.415985e-03	1.794294e+00	1.793142e+00	3.300000e+00	
136	2.435985e-03	1.794327e+00	1.793091e+00	3.300000e+00	
137	2.455985e-03	1.794296e+00	1.793139e+00	3.300000e+00	
138	2.475985e-03	1.794326e+00	1.793093e+00	3.300000e+00	
139	2.495985e-03	1.794297e+00	1.793137e+00	3.300000e+00	
140	2.515985e-03	1.794324e+00	1.793095e+00	3.300000e+00	
141	2.535985e-03	1.794299e+00	1.793135e+00	3.300000e+00	
142	2.555985e-03	1.794323e+00	1.793097e+00	3.300000e+00	
143	2.575985e-03	1.794300e+00	1.793133e+00	3.300000e+00	
144	2.595985e-03	1.794322e+00	1.793099e+00	3.300000e+00	
145	2.615985e-03	1.794301e+00	1.793132e+00	3.300000e+00	
146	2.635985e-03	1.794321e+00	1.793100e+00	3.300000e+00	
147	2.655985e-03	1.794302e+00	1.793130e+00	3.300000e+00	
148	2.675985e-03	1.794320e+00	1.793102e+00	3.300000e+00	
149	2.695985e-03	1.794303e+00	1.793129e+00	3.300000e+00	
150	2.715985e-03	1.794319e+00	1.793103e+00	3.300000e+00	
151	2.735985e-03	1.794303e+00	1.793128e+00	3.300000e+00	
152	2.755985e-03	1.794318e+00	1.793104e+00	3.300000e+00	
153	2.775985e-03	1.794304e+00	1.793127e+00	3.300000e+00	
154	2.795985e-03	1.794318e+00	1.793105e+00	3.300000e+00	
155	2.815985e-03	1.794305e+00	1.793126e+00	3.300000e+00	
156	2.835985e-03	1.794317e+00	1.793106e+00	3.300000e+00	
157	2.855985e-03	1.794305e+00	1.793125e+00	3.300000e+00	
158	2.875985e-03	1.794317e+00	1.793107e+00	3.300000e+00	
159	2.895985e-03	1.794306e+00	1.793124e+00	3.300000e+00	
160	2.915985e-03	1.794316e+00	1.793108e+00	3.300000e+00	
161	2.935985e-03	1.794306e+00	1.793123e+00	3.300000e+00	
162	2.955985e-03	1.794316e+00	1.793109e+00	3.300000e+00	
163	2.975985e-03	1.794307e+00	1.793122e+00	3.300000e+00	
164	2.995985e-03	1.794315e+00	1.793109e+00	3.300000e+00	
165	3.015985e-03	1.794307e+00	1.793122e+00	3.300000e+00	
166	3.035985e-03	1.794315e+00	1.793110e+00	3.300000e+00	
167	3.055985e-03	1.794308e+00	1.793121e+00	3.300000e+00	
168	3.075985e-03	1.794314e+00	1.793110e+00	3.300000e+00	
169	3.095985e-03	1.794308e+00	1.793121e+00	3.300000e+00	
170	3.115985e-03	1.794314e+00	1.793111e+00	3.300000e+00	

Index   time            v(vin_main)     v(vmaster)      v(gcore)        
--------------------------------------------------------------------------------
171	3.135985e-03	1.794308e+00	1.793120e+00	3.300000e+00	
172	3.155985e-03	1.794314e+00	1.793111e+00	3.300000e+00	
173	3.175985e-03	1.794308e+00	1.793120e+00	3.300000e+00	
174	3.195985e-03	1.794314e+00	1.793112e+00	3.300000e+00	
175	3.215985e-03	1.794309e+00	1.793119e+00	3.300000e+00	
176	3.235985e-03	1.794313e+00	1.793112e+00	3.300000e+00	
177	3.255985e-03	1.794309e+00	1.793119e+00	3.300000e+00	
178	3.275985e-03	1.794313e+00	1.793112e+00	3.300000e+00	
179	3.295985e-03	1.794309e+00	1.793119e+00	3.300000e+00	
180	3.315985e-03	1.794313e+00	1.793113e+00	3.300000e+00	
181	3.335985e-03	1.794309e+00	1.793118e+00	3.300000e+00	
182	3.355985e-03	1.794313e+00	1.793113e+00	3.300000e+00	
183	3.375985e-03	1.794309e+00	1.793118e+00	3.300000e+00	
184	3.395985e-03	1.794313e+00	1.793113e+00	3.300000e+00	
185	3.415985e-03	1.794310e+00	1.793118e+00	3.300000e+00	
186	3.435985e-03	1.794312e+00	1.793114e+00	3.300000e+00	
187	3.455985e-03	1.794310e+00	1.793118e+00	3.300000e+00	
188	3.475985e-03	1.794312e+00	1.793114e+00	3.300000e+00	
189	3.495985e-03	1.794310e+00	1.793118e+00	3.300000e+00	
190	3.515985e-03	1.794312e+00	1.793114e+00	3.300000e+00	
191	3.535985e-03	1.794310e+00	1.793117e+00	3.300000e+00	
192	3.555985e-03	1.794312e+00	1.793114e+00	3.300000e+00	
193	3.575985e-03	1.794310e+00	1.793117e+00	3.300000e+00	
194	3.595985e-03	1.794312e+00	1.793114e+00	3.300000e+00	
195	3.615985e-03	1.794310e+00	1.793117e+00	3.300000e+00	
196	3.635985e-03	1.794312e+00	1.793114e+00	3.300000e+00	
197	3.655985e-03	1.794310e+00	1.793117e+00	3.300000e+00	
198	3.675985e-03	1.794312e+00	1.793114e+00	3.300000e+00	
199	3.695985e-03	1.794310e+00	1.793117e+00	3.300000e+00	
200	3.715985e-03	1.794312e+00	1.793115e+00	3.300000e+00	
201	3.735985e-03	1.794310e+00	1.793117e+00	3.300000e+00	
202	3.755985e-03	1.794312e+00	1.793115e+00	3.300000e+00	
203	3.775985e-03	1.794310e+00	1.793117e+00	3.300000e+00	
204	3.795985e-03	1.794312e+00	1.793115e+00	3.300000e+00	
205	3.815985e-03	1.794311e+00	1.793117e+00	3.300000e+00	
206	3.835985e-03	1.794312e+00	1.793115e+00	3.300000e+00	
207	3.855985e-03	1.794311e+00	1.793116e+00	3.300000e+00	
208	3.875985e-03	1.794312e+00	1.793115e+00	3.300000e+00	
209	3.895985e-03	1.794311e+00	1.793116e+00	3.300000e+00	
210	3.915985e-03	1.794312e+00	1.793115e+00	3.300000e+00	
211	3.935985e-03	1.794311e+00	1.793116e+00	3.300000e+00	
212	3.955985e-03	1.794311e+00	1.793115e+00	3.300000e+00	
213	3.975985e-03	1.794311e+00	1.793116e+00	3.300000e+00	
214	3.995985e-03	1.794311e+00	1.793115e+00	3.300000e+00	
215	4.015985e-03	1.794311e+00	1.793116e+00	3.300000e+00	
216	4.035985e-03	1.794311e+00	1.793115e+00	3.300000e+00	
217	4.055985e-03	1.794311e+00	1.793116e+00	3.300000e+00	
218	4.075985e-03	1.794311e+00	1.793115e+00	3.300000e+00	
219	4.095985e-03	1.794311e+00	1.793116e+00	3.300000e+00	
220	4.115985e-03	1.794311e+00	1.793115e+00	3.300000e+00	
221	4.135985e-03	1.794311e+00	1.793116e+00	3.300000e+00	
222	4.155985e-03	1.794311e+00	1.793115e+00	3.300000e+00	
223	4.175985e-03	1.794311e+00	1.793116e+00	3.300000e+00	
224	4.195985e-03	1.794311e+00	1.793115e+00	3.300000e+00	
225	4.215985e-03	1.794311e+00	1.793116e+00	3.300000e+00	
226	4.235985e-03	1.794311e+00	1.793115e+00	3.300000e+00	
227	4.255985e-03	1.794311e+00	1.793116e+00	3.300000e+00	
228	4.275985e-03	1.794311e+00	1.793115e+00	3.300000e+00	

Index   time            v(vin_main)     v(vmaster)      v(gcore)        
--------------------------------------------------------------------------------
229	4.295985e-03	1.794311e+00	1.793116e+00	3.300000e+00	
230	4.315985e-03	1.794311e+00	1.793115e+00	3.300000e+00	
231	4.335985e-03	1.794311e+00	1.793116e+00	3.300000e+00	
232	4.355985e-03	1.794311e+00	1.793115e+00	3.300000e+00	
233	4.375985e-03	1.794311e+00	1.793116e+00	3.300000e+00	
234	4.395985e-03	1.794311e+00	1.793115e+00	3.300000e+00	
235	4.415985e-03	1.794311e+00	1.793116e+00	3.300000e+00	
236	4.435985e-03	1.794311e+00	1.793116e+00	3.300000e+00	
237	4.455985e-03	1.794311e+00	1.793116e+00	3.300000e+00	
238	4.475985e-03	1.794311e+00	1.793116e+00	3.300000e+00	
239	4.495985e-03	1.794311e+00	1.793116e+00	3.300000e+00	
240	4.515985e-03	1.794311e+00	1.793116e+00	3.300000e+00	
241	4.535985e-03	1.794311e+00	1.793116e+00	3.300000e+00	
242	4.555985e-03	1.794311e+00	1.793116e+00	3.300000e+00	
243	4.575985e-03	1.794311e+00	1.793116e+00	3.300000e+00	
244	4.595985e-03	1.794311e+00	1.793116e+00	3.300000e+00	
245	4.615985e-03	1.794311e+00	1.793116e+00	3.300000e+00	
246	4.635985e-03	1.794311e+00	1.793116e+00	3.300000e+00	
247	4.655985e-03	1.794311e+00	1.793116e+00	3.300000e+00	
248	4.675985e-03	1.794311e+00	1.793116e+00	3.300000e+00	
249	4.695985e-03	1.794311e+00	1.793116e+00	3.300000e+00	
250	4.715985e-03	1.794311e+00	1.793116e+00	3.300000e+00	
251	4.735985e-03	1.794311e+00	1.793116e+00	3.300000e+00	
252	4.755985e-03	1.794311e+00	1.793116e+00	3.300000e+00	
253	4.775985e-03	1.794311e+00	1.793116e+00	3.300000e+00	
254	4.795985e-03	1.794311e+00	1.793116e+00	3.300000e+00	
255	4.815985e-03	1.794311e+00	1.793116e+00	3.300000e+00	
256	4.835985e-03	1.794311e+00	1.793116e+00	3.300000e+00	
257	4.855985e-03	1.794311e+00	1.793116e+00	3.300000e+00	
258	4.875985e-03	1.794311e+00	1.793116e+00	3.300000e+00	
259	4.895985e-03	1.794311e+00	1.793116e+00	3.300000e+00	
260	4.915985e-03	1.794311e+00	1.793116e+00	3.300000e+00	
261	4.935985e-03	1.794311e+00	1.793116e+00	3.300000e+00	
262	4.955985e-03	1.794311e+00	1.793116e+00	3.300000e+00	
263	4.975985e-03	1.794311e+00	1.793116e+00	3.300000e+00	
264	4.995985e-03	1.794311e+00	1.793116e+00	3.300000e+00	
265	5.015985e-03	1.794311e+00	1.793116e+00	3.300000e+00	
266	5.035985e-03	1.794311e+00	1.793116e+00	3.300000e+00	
267	5.055985e-03	1.794311e+00	1.793116e+00	3.300000e+00	
268	5.075985e-03	1.794311e+00	1.793116e+00	3.300000e+00	
269	5.095985e-03	1.794311e+00	1.793116e+00	3.300000e+00	
270	5.115985e-03	1.794311e+00	1.793116e+00	3.300000e+00	
271	5.135985e-03	1.794311e+00	1.793116e+00	3.300000e+00	
272	5.155985e-03	1.794311e+00	1.793116e+00	3.300000e+00	
273	5.175985e-03	1.794311e+00	1.793116e+00	3.300000e+00	
274	5.195985e-03	1.794311e+00	1.793116e+00	3.300000e+00	
275	5.215985e-03	1.794311e+00	1.793116e+00	3.300000e+00	
276	5.235985e-03	1.794311e+00	1.793116e+00	3.300000e+00	
277	5.255985e-03	1.794311e+00	1.793116e+00	3.300000e+00	
278	5.275985e-03	1.794311e+00	1.793116e+00	3.300000e+00	
279	5.295985e-03	1.794311e+00	1.793116e+00	3.300000e+00	
280	5.315985e-03	1.794311e+00	1.793116e+00	3.300000e+00	
281	5.335985e-03	1.794311e+00	1.793116e+00	3.300000e+00	
282	5.355985e-03	1.794311e+00	1.793116e+00	3.300000e+00	
283	5.375985e-03	1.794311e+00	1.793116e+00	3.300000e+00	
284	5.395985e-03	1.794311e+00	1.793116e+00	3.300000e+00	
285	5.415985e-03	1.794311e+00	1.793116e+00	3.300000e+00	
286	5.435985e-03	1.794311e+00	1.793116e+00	3.300000e+00	

Index   time            v(vin_main)     v(vmaster)      v(gcore)        
--------------------------------------------------------------------------------
287	5.455985e-03	1.794311e+00	1.793116e+00	3.300000e+00	
288	5.475985e-03	1.794311e+00	1.793116e+00	3.300000e+00	
289	5.495985e-03	1.794311e+00	1.793116e+00	3.300000e+00	
290	5.515985e-03	1.794311e+00	1.793116e+00	3.300000e+00	
291	5.535985e-03	1.794311e+00	1.793116e+00	3.300000e+00	
292	5.555985e-03	1.794311e+00	1.793116e+00	3.300000e+00	
293	5.575985e-03	1.794311e+00	1.793116e+00	3.300000e+00	
294	5.595985e-03	1.794311e+00	1.793116e+00	3.300000e+00	
295	5.615985e-03	1.794311e+00	1.793116e+00	3.300000e+00	
296	5.635985e-03	1.794311e+00	1.793116e+00	3.300000e+00	
297	5.655985e-03	1.794311e+00	1.793116e+00	3.300000e+00	
298	5.675985e-03	1.794311e+00	1.793116e+00	3.300000e+00	
299	5.695985e-03	1.794311e+00	1.793116e+00	3.300000e+00	
300	5.715985e-03	1.794311e+00	1.793116e+00	3.300000e+00	
301	5.735985e-03	1.794311e+00	1.793116e+00	3.300000e+00	
302	5.755985e-03	1.794311e+00	1.793116e+00	3.300000e+00	
303	5.775985e-03	1.794311e+00	1.793116e+00	3.300000e+00	
304	5.795985e-03	1.794311e+00	1.793116e+00	3.300000e+00	
305	5.815985e-03	1.794311e+00	1.793116e+00	3.300000e+00	
306	5.835985e-03	1.794311e+00	1.793116e+00	3.300000e+00	
307	5.855985e-03	1.794311e+00	1.793116e+00	3.300000e+00	
308	5.875985e-03	1.794311e+00	1.793116e+00	3.300000e+00	
309	5.895985e-03	1.794311e+00	1.793116e+00	3.300000e+00	
310	5.915985e-03	1.794311e+00	1.793116e+00	3.300000e+00	
311	5.935985e-03	1.794311e+00	1.793116e+00	3.300000e+00	
312	5.955985e-03	1.794311e+00	1.793116e+00	3.300000e+00	
313	5.975985e-03	1.794311e+00	1.793116e+00	3.300000e+00	
314	5.995985e-03	1.794311e+00	1.793116e+00	3.300000e+00	
315	6.015985e-03	1.794311e+00	1.793116e+00	3.300000e+00	
316	6.035985e-03	1.794311e+00	1.793116e+00	3.300000e+00	
317	6.055985e-03	1.794311e+00	1.793116e+00	3.300000e+00	
318	6.075985e-03	1.794311e+00	1.793116e+00	3.300000e+00	
319	6.095985e-03	1.794311e+00	1.793116e+00	3.300000e+00	
320	6.115985e-03	1.794311e+00	1.793116e+00	3.300000e+00	
321	6.135985e-03	1.794311e+00	1.793116e+00	3.300000e+00	
322	6.155985e-03	1.794311e+00	1.793116e+00	3.300000e+00	
323	6.175985e-03	1.794311e+00	1.793116e+00	3.300000e+00	
324	6.195985e-03	1.794311e+00	1.793116e+00	3.300000e+00	
325	6.215985e-03	1.794311e+00	1.793116e+00	3.300000e+00	
326	6.235985e-03	1.794311e+00	1.793116e+00	3.300000e+00	
327	6.255985e-03	1.794311e+00	1.793116e+00	3.300000e+00	
328	6.275985e-03	1.794311e+00	1.793116e+00	3.300000e+00	
329	6.295985e-03	1.794311e+00	1.793116e+00	3.300000e+00	
330	6.315985e-03	1.794311e+00	1.793116e+00	3.300000e+00	
331	6.335985e-03	1.794311e+00	1.793116e+00	3.300000e+00	
332	6.355985e-03	1.794311e+00	1.793116e+00	3.300000e+00	
333	6.375985e-03	1.794311e+00	1.793116e+00	3.300000e+00	
334	6.395985e-03	1.794311e+00	1.793116e+00	3.300000e+00	
335	6.415985e-03	1.794311e+00	1.793116e+00	3.300000e+00	
336	6.435985e-03	1.794311e+00	1.793116e+00	3.300000e+00	
337	6.455985e-03	1.794311e+00	1.793116e+00	3.300000e+00	
338	6.475985e-03	1.794311e+00	1.793116e+00	3.300000e+00	
339	6.495985e-03	1.794311e+00	1.793116e+00	3.300000e+00	
340	6.515985e-03	1.794311e+00	1.793116e+00	3.300000e+00	
341	6.535985e-03	1.794311e+00	1.793116e+00	3.300000e+00	
342	6.555985e-03	1.794311e+00	1.793116e+00	3.300000e+00	
343	6.575985e-03	1.794311e+00	1.793116e+00	3.300000e+00	
344	6.595985e-03	1.794311e+00	1.793116e+00	3.300000e+00	

Index   time            v(vin_main)     v(vmaster)      v(gcore)        
--------------------------------------------------------------------------------
345	6.615985e-03	1.794311e+00	1.793116e+00	3.300000e+00	
346	6.635985e-03	1.794311e+00	1.793116e+00	3.300000e+00	
347	6.655985e-03	1.794311e+00	1.793116e+00	3.300000e+00	
348	6.675985e-03	1.794311e+00	1.793116e+00	3.300000e+00	
349	6.695985e-03	1.794311e+00	1.793116e+00	3.300000e+00	
350	6.715985e-03	1.794311e+00	1.793116e+00	3.300000e+00	
351	6.735985e-03	1.794311e+00	1.793116e+00	3.300000e+00	
352	6.755985e-03	1.794311e+00	1.793116e+00	3.300000e+00	
353	6.775985e-03	1.794311e+00	1.793116e+00	3.300000e+00	
354	6.795985e-03	1.794311e+00	1.793116e+00	3.300000e+00	
355	6.815985e-03	1.794311e+00	1.793116e+00	3.300000e+00	
356	6.835985e-03	1.794311e+00	1.793116e+00	3.300000e+00	
357	6.855985e-03	1.794311e+00	1.793116e+00	3.300000e+00	
358	6.875985e-03	1.794311e+00	1.793116e+00	3.300000e+00	
359	6.895985e-03	1.794311e+00	1.793116e+00	3.300000e+00	
360	6.915985e-03	1.794311e+00	1.793116e+00	3.300000e+00	
361	6.935985e-03	1.794311e+00	1.793116e+00	3.300000e+00	
362	6.955985e-03	1.794311e+00	1.793116e+00	3.300000e+00	
363	6.975985e-03	1.794311e+00	1.793116e+00	3.300000e+00	
364	6.995985e-03	1.794311e+00	1.793116e+00	3.300000e+00	
365	7.015985e-03	1.794311e+00	1.793116e+00	3.300000e+00	
366	7.035985e-03	1.794311e+00	1.793116e+00	3.300000e+00	
367	7.055985e-03	1.794311e+00	1.793116e+00	3.300000e+00	
368	7.075985e-03	1.794311e+00	1.793116e+00	3.300000e+00	
369	7.095985e-03	1.794311e+00	1.793116e+00	3.300000e+00	
370	7.115985e-03	1.794311e+00	1.793116e+00	3.300000e+00	
371	7.135985e-03	1.794311e+00	1.793116e+00	3.300000e+00	
372	7.155985e-03	1.794311e+00	1.793116e+00	3.300000e+00	
373	7.175985e-03	1.794311e+00	1.793116e+00	3.300000e+00	
374	7.195985e-03	1.794311e+00	1.793116e+00	3.300000e+00	
375	7.215985e-03	1.794311e+00	1.793116e+00	3.300000e+00	
376	7.235985e-03	1.794311e+00	1.793116e+00	3.300000e+00	
377	7.255985e-03	1.794311e+00	1.793116e+00	3.300000e+00	
378	7.275985e-03	1.794311e+00	1.793116e+00	3.300000e+00	
379	7.295985e-03	1.794311e+00	1.793116e+00	3.300000e+00	
380	7.315985e-03	1.794311e+00	1.793116e+00	3.300000e+00	
381	7.335985e-03	1.794311e+00	1.793116e+00	3.300000e+00	
382	7.355985e-03	1.794311e+00	1.793116e+00	3.300000e+00	
383	7.375985e-03	1.794311e+00	1.793116e+00	3.300000e+00	
384	7.395985e-03	1.794311e+00	1.793116e+00	3.300000e+00	
385	7.415985e-03	1.794311e+00	1.793116e+00	3.300000e+00	
386	7.435985e-03	1.794311e+00	1.793116e+00	3.300000e+00	
387	7.455985e-03	1.794311e+00	1.793116e+00	3.300000e+00	
388	7.475985e-03	1.794311e+00	1.793116e+00	3.300000e+00	
389	7.495985e-03	1.794311e+00	1.793116e+00	3.300000e+00	
390	7.515985e-03	1.794311e+00	1.793116e+00	3.300000e+00	
391	7.535985e-03	1.794311e+00	1.793116e+00	3.300000e+00	
392	7.555985e-03	1.794311e+00	1.793116e+00	3.300000e+00	
393	7.575985e-03	1.794311e+00	1.793116e+00	3.300000e+00	
394	7.595985e-03	1.794311e+00	1.793116e+00	3.300000e+00	
395	7.615985e-03	1.794311e+00	1.793116e+00	3.300000e+00	
396	7.635985e-03	1.794311e+00	1.793116e+00	3.300000e+00	
397	7.655985e-03	1.794311e+00	1.793116e+00	3.300000e+00	
398	7.675985e-03	1.794311e+00	1.793116e+00	3.300000e+00	
399	7.695985e-03	1.794311e+00	1.793116e+00	3.300000e+00	
400	7.715985e-03	1.794311e+00	1.793116e+00	3.300000e+00	
401	7.735985e-03	1.794311e+00	1.793116e+00	3.300000e+00	
402	7.755985e-03	1.794311e+00	1.793116e+00	3.300000e+00	

Index   time            v(vin_main)     v(vmaster)      v(gcore)        
--------------------------------------------------------------------------------
403	7.775985e-03	1.794311e+00	1.793116e+00	3.300000e+00	
404	7.795985e-03	1.794311e+00	1.793116e+00	3.300000e+00	
405	7.815985e-03	1.794311e+00	1.793116e+00	3.300000e+00	
406	7.835985e-03	1.794311e+00	1.793116e+00	3.300000e+00	
407	7.855985e-03	1.794311e+00	1.793116e+00	3.300000e+00	
408	7.875985e-03	1.794311e+00	1.793116e+00	3.300000e+00	
409	7.895985e-03	1.794311e+00	1.793116e+00	3.300000e+00	
410	7.915985e-03	1.794311e+00	1.793116e+00	3.300000e+00	
411	7.935985e-03	1.794311e+00	1.793116e+00	3.300000e+00	
412	7.955985e-03	1.794311e+00	1.793116e+00	3.300000e+00	
413	7.975985e-03	1.794311e+00	1.793116e+00	3.300000e+00	
414	7.995985e-03	1.794311e+00	1.793116e+00	3.300000e+00	
415	8.015985e-03	1.794311e+00	1.793116e+00	3.300000e+00	
416	8.035985e-03	1.794311e+00	1.793116e+00	3.300000e+00	
417	8.055985e-03	1.794311e+00	1.793116e+00	3.300000e+00	
418	8.075985e-03	1.794311e+00	1.793116e+00	3.300000e+00	
419	8.095985e-03	1.794311e+00	1.793116e+00	3.300000e+00	
420	8.115985e-03	1.794311e+00	1.793116e+00	3.300000e+00	
421	8.135985e-03	1.794311e+00	1.793116e+00	3.300000e+00	
422	8.155985e-03	1.794311e+00	1.793116e+00	3.300000e+00	
423	8.175985e-03	1.794311e+00	1.793116e+00	3.300000e+00	
424	8.195985e-03	1.794311e+00	1.793116e+00	3.300000e+00	
425	8.215985e-03	1.794311e+00	1.793116e+00	3.300000e+00	
426	8.235985e-03	1.794311e+00	1.793116e+00	3.300000e+00	
427	8.255985e-03	1.794311e+00	1.793116e+00	3.300000e+00	
428	8.275985e-03	1.794311e+00	1.793116e+00	3.300000e+00	
429	8.295985e-03	1.794311e+00	1.793116e+00	3.300000e+00	
430	8.315985e-03	1.794311e+00	1.793116e+00	3.300000e+00	
431	8.335985e-03	1.794311e+00	1.793116e+00	3.300000e+00	
432	8.355985e-03	1.794311e+00	1.793116e+00	3.300000e+00	
433	8.375985e-03	1.794311e+00	1.793116e+00	3.300000e+00	
434	8.395985e-03	1.794311e+00	1.793116e+00	3.300000e+00	
435	8.415985e-03	1.794311e+00	1.793116e+00	3.300000e+00	
436	8.435985e-03	1.794311e+00	1.793116e+00	3.300000e+00	
437	8.455985e-03	1.794311e+00	1.793116e+00	3.300000e+00	
438	8.475985e-03	1.794311e+00	1.793116e+00	3.300000e+00	
439	8.495985e-03	1.794311e+00	1.793116e+00	3.300000e+00	
440	8.515985e-03	1.794311e+00	1.793116e+00	3.300000e+00	
441	8.535985e-03	1.794311e+00	1.793116e+00	3.300000e+00	
442	8.555985e-03	1.794311e+00	1.793116e+00	3.300000e+00	
443	8.575985e-03	1.794311e+00	1.793116e+00	3.300000e+00	
444	8.595985e-03	1.794311e+00	1.793116e+00	3.300000e+00	
445	8.615985e-03	1.794311e+00	1.793116e+00	3.300000e+00	
446	8.635985e-03	1.794311e+00	1.793116e+00	3.300000e+00	
447	8.655985e-03	1.794311e+00	1.793116e+00	3.300000e+00	
448	8.675985e-03	1.794311e+00	1.793116e+00	3.300000e+00	
449	8.695985e-03	1.794311e+00	1.793116e+00	3.300000e+00	
450	8.715985e-03	1.794311e+00	1.793116e+00	3.300000e+00	
451	8.735985e-03	1.794311e+00	1.793116e+00	3.300000e+00	
452	8.755985e-03	1.794311e+00	1.793116e+00	3.300000e+00	
453	8.775985e-03	1.794311e+00	1.793116e+00	3.300000e+00	
454	8.795985e-03	1.794311e+00	1.793116e+00	3.300000e+00	
455	8.815985e-03	1.794311e+00	1.793116e+00	3.300000e+00	
456	8.835985e-03	1.794311e+00	1.793116e+00	3.300000e+00	
457	8.855985e-03	1.794311e+00	1.793116e+00	3.300000e+00	
458	8.875985e-03	1.794311e+00	1.793116e+00	3.300000e+00	
459	8.895985e-03	1.794311e+00	1.793116e+00	3.300000e+00	
460	8.915985e-03	1.794311e+00	1.793116e+00	3.300000e+00	

Index   time            v(vin_main)     v(vmaster)      v(gcore)        
--------------------------------------------------------------------------------
461	8.935985e-03	1.794311e+00	1.793116e+00	3.300000e+00	
462	8.955985e-03	1.794311e+00	1.793116e+00	3.300000e+00	
463	8.975985e-03	1.794311e+00	1.793116e+00	3.300000e+00	
464	8.995985e-03	1.794311e+00	1.793116e+00	3.300000e+00	
465	9.015985e-03	1.794311e+00	1.793116e+00	3.300000e+00	
466	9.035985e-03	1.794311e+00	1.793116e+00	3.300000e+00	
467	9.055985e-03	1.794311e+00	1.793116e+00	3.300000e+00	
468	9.075985e-03	1.794311e+00	1.793116e+00	3.300000e+00	
469	9.095985e-03	1.794311e+00	1.793116e+00	3.300000e+00	
470	9.115985e-03	1.794311e+00	1.793116e+00	3.300000e+00	
471	9.135985e-03	1.794311e+00	1.793116e+00	3.300000e+00	
472	9.155985e-03	1.794311e+00	1.793116e+00	3.300000e+00	
473	9.175985e-03	1.794311e+00	1.793116e+00	3.300000e+00	
474	9.195985e-03	1.794311e+00	1.793116e+00	3.300000e+00	
475	9.215985e-03	1.794311e+00	1.793116e+00	3.300000e+00	
476	9.235985e-03	1.794311e+00	1.793116e+00	3.300000e+00	
477	9.255985e-03	1.794311e+00	1.793116e+00	3.300000e+00	
478	9.275985e-03	1.794311e+00	1.793116e+00	3.300000e+00	
479	9.295985e-03	1.794311e+00	1.793116e+00	3.300000e+00	
480	9.315985e-03	1.794311e+00	1.793116e+00	3.300000e+00	
481	9.335985e-03	1.794311e+00	1.793116e+00	3.300000e+00	
482	9.355985e-03	1.794311e+00	1.793116e+00	3.300000e+00	
483	9.375985e-03	1.794311e+00	1.793116e+00	3.300000e+00	
484	9.395985e-03	1.794311e+00	1.793116e+00	3.300000e+00	
485	9.415985e-03	1.794311e+00	1.793116e+00	3.300000e+00	
486	9.435985e-03	1.794311e+00	1.793116e+00	3.300000e+00	
487	9.455985e-03	1.794311e+00	1.793116e+00	3.300000e+00	
488	9.475985e-03	1.794311e+00	1.793116e+00	3.300000e+00	
489	9.495985e-03	1.794311e+00	1.793116e+00	3.300000e+00	
490	9.515985e-03	1.794311e+00	1.793116e+00	3.300000e+00	
491	9.535985e-03	1.794311e+00	1.793116e+00	3.300000e+00	
492	9.555985e-03	1.794311e+00	1.793116e+00	3.300000e+00	
493	9.575985e-03	1.794311e+00	1.793116e+00	3.300000e+00	
494	9.595985e-03	1.794311e+00	1.793116e+00	3.300000e+00	
495	9.615985e-03	1.794311e+00	1.793116e+00	3.300000e+00	
496	9.635985e-03	1.794311e+00	1.793116e+00	3.300000e+00	
497	9.655985e-03	1.794311e+00	1.793116e+00	3.300000e+00	
498	9.675985e-03	1.794311e+00	1.793116e+00	3.300000e+00	
499	9.695985e-03	1.794311e+00	1.793116e+00	3.300000e+00	
500	9.715985e-03	1.794311e+00	1.793116e+00	3.300000e+00	
501	9.735985e-03	1.794311e+00	1.793116e+00	3.300000e+00	
502	9.755985e-03	1.794311e+00	1.793116e+00	3.300000e+00	
503	9.775985e-03	1.794311e+00	1.793116e+00	3.300000e+00	
504	9.795985e-03	1.794311e+00	1.793116e+00	3.300000e+00	
505	9.815985e-03	1.794311e+00	1.793116e+00	3.300000e+00	
506	9.835985e-03	1.794311e+00	1.793116e+00	3.300000e+00	
507	9.855985e-03	1.794311e+00	1.793116e+00	3.300000e+00	
508	9.875985e-03	1.794311e+00	1.793116e+00	3.300000e+00	
509	9.895985e-03	1.794311e+00	1.793116e+00	3.300000e+00	
510	9.915985e-03	1.794311e+00	1.793116e+00	3.300000e+00	
511	9.935985e-03	1.794311e+00	1.793116e+00	3.300000e+00	
512	9.955985e-03	1.794311e+00	1.793116e+00	3.300000e+00	
513	9.975985e-03	1.794311e+00	1.793116e+00	3.300000e+00	
514	9.995985e-03	1.794311e+00	1.793116e+00	3.300000e+00	
515	1.001599e-02	1.794311e+00	1.793116e+00	3.300000e+00	
516	1.003599e-02	1.794311e+00	1.793116e+00	3.300000e+00	
517	1.005599e-02	1.794311e+00	1.793116e+00	3.300000e+00	
518	1.007599e-02	1.794311e+00	1.793116e+00	3.300000e+00	

Index   time            v(vin_main)     v(vmaster)      v(gcore)        
--------------------------------------------------------------------------------
519	1.009599e-02	1.794311e+00	1.793116e+00	3.300000e+00	
520	1.011599e-02	1.794311e+00	1.793116e+00	3.300000e+00	
521	1.013599e-02	1.794311e+00	1.793116e+00	3.300000e+00	
522	1.015599e-02	1.794311e+00	1.793116e+00	3.300000e+00	
523	1.017599e-02	1.794311e+00	1.793116e+00	3.300000e+00	
524	1.019599e-02	1.794311e+00	1.793116e+00	3.300000e+00	
525	1.021599e-02	1.794311e+00	1.793116e+00	3.300000e+00	
526	1.023599e-02	1.794311e+00	1.793116e+00	3.300000e+00	
527	1.025599e-02	1.794311e+00	1.793116e+00	3.300000e+00	
528	1.027599e-02	1.794311e+00	1.793116e+00	3.300000e+00	
529	1.029599e-02	1.794311e+00	1.793116e+00	3.300000e+00	
530	1.031599e-02	1.794311e+00	1.793116e+00	3.300000e+00	
531	1.033599e-02	1.794311e+00	1.793116e+00	3.300000e+00	
532	1.035599e-02	1.794311e+00	1.793116e+00	3.300000e+00	
533	1.037599e-02	1.794311e+00	1.793116e+00	3.300000e+00	
534	1.039599e-02	1.794311e+00	1.793116e+00	3.300000e+00	
535	1.041599e-02	1.794311e+00	1.793116e+00	3.300000e+00	
536	1.043599e-02	1.794311e+00	1.793116e+00	3.300000e+00	
537	1.045599e-02	1.794311e+00	1.793116e+00	3.300000e+00	
538	1.047599e-02	1.794311e+00	1.793116e+00	3.300000e+00	
539	1.049599e-02	1.794311e+00	1.793116e+00	3.300000e+00	
540	1.051599e-02	1.794311e+00	1.793116e+00	3.300000e+00	
541	1.053599e-02	1.794311e+00	1.793116e+00	3.300000e+00	
542	1.055599e-02	1.794311e+00	1.793116e+00	3.300000e+00	
543	1.057599e-02	1.794311e+00	1.793116e+00	3.300000e+00	
544	1.059599e-02	1.794311e+00	1.793116e+00	3.300000e+00	
545	1.061599e-02	1.794311e+00	1.793116e+00	3.300000e+00	
546	1.063599e-02	1.794311e+00	1.793116e+00	3.300000e+00	
547	1.065599e-02	1.794311e+00	1.793116e+00	3.300000e+00	
548	1.067599e-02	1.794311e+00	1.793116e+00	3.300000e+00	
549	1.069599e-02	1.794311e+00	1.793116e+00	3.300000e+00	
550	1.071599e-02	1.794311e+00	1.793116e+00	3.300000e+00	
551	1.073599e-02	1.794311e+00	1.793116e+00	3.300000e+00	
552	1.075599e-02	1.794311e+00	1.793116e+00	3.300000e+00	
553	1.077599e-02	1.794311e+00	1.793116e+00	3.300000e+00	
554	1.079599e-02	1.794311e+00	1.793116e+00	3.300000e+00	
555	1.081599e-02	1.794311e+00	1.793116e+00	3.300000e+00	
556	1.083599e-02	1.794311e+00	1.793116e+00	3.300000e+00	
557	1.085599e-02	1.794311e+00	1.793116e+00	3.300000e+00	
558	1.087599e-02	1.794311e+00	1.793116e+00	3.300000e+00	
559	1.089599e-02	1.794311e+00	1.793116e+00	3.300000e+00	
560	1.091599e-02	1.794311e+00	1.793116e+00	3.300000e+00	
561	1.093599e-02	1.794311e+00	1.793116e+00	3.300000e+00	
562	1.095599e-02	1.794311e+00	1.793116e+00	3.300000e+00	
563	1.097599e-02	1.794311e+00	1.793116e+00	3.300000e+00	
564	1.099599e-02	1.794311e+00	1.793116e+00	3.300000e+00	
565	1.101599e-02	1.794311e+00	1.793116e+00	3.300000e+00	
566	1.103599e-02	1.794311e+00	1.793116e+00	3.300000e+00	
567	1.105599e-02	1.794311e+00	1.793116e+00	3.300000e+00	
568	1.107599e-02	1.794311e+00	1.793116e+00	3.300000e+00	
569	1.109599e-02	1.794311e+00	1.793116e+00	3.300000e+00	
570	1.111599e-02	1.794311e+00	1.793116e+00	3.300000e+00	
571	1.113599e-02	1.794311e+00	1.793116e+00	3.300000e+00	
572	1.115599e-02	1.794311e+00	1.793116e+00	3.300000e+00	
573	1.117599e-02	1.794311e+00	1.793116e+00	3.300000e+00	
574	1.119599e-02	1.794311e+00	1.793116e+00	3.300000e+00	
575	1.121599e-02	1.794311e+00	1.793116e+00	3.300000e+00	
576	1.123599e-02	1.794311e+00	1.793116e+00	3.300000e+00	

Index   time            v(vin_main)     v(vmaster)      v(gcore)        
--------------------------------------------------------------------------------
577	1.125599e-02	1.794311e+00	1.793116e+00	3.300000e+00	
578	1.127599e-02	1.794311e+00	1.793116e+00	3.300000e+00	
579	1.129599e-02	1.794311e+00	1.793116e+00	3.300000e+00	
580	1.131599e-02	1.794311e+00	1.793116e+00	3.300000e+00	
581	1.133599e-02	1.794311e+00	1.793116e+00	3.300000e+00	
582	1.135599e-02	1.794311e+00	1.793116e+00	3.300000e+00	
583	1.137599e-02	1.794311e+00	1.793116e+00	3.300000e+00	
584	1.139599e-02	1.794311e+00	1.793116e+00	3.300000e+00	
585	1.141599e-02	1.794311e+00	1.793116e+00	3.300000e+00	
586	1.143599e-02	1.794311e+00	1.793116e+00	3.300000e+00	
587	1.145599e-02	1.794311e+00	1.793116e+00	3.300000e+00	
588	1.147599e-02	1.794311e+00	1.793116e+00	3.300000e+00	
589	1.149599e-02	1.794311e+00	1.793116e+00	3.300000e+00	
590	1.151599e-02	1.794311e+00	1.793116e+00	3.300000e+00	
591	1.153599e-02	1.794311e+00	1.793116e+00	3.300000e+00	
592	1.155599e-02	1.794311e+00	1.793116e+00	3.300000e+00	
593	1.157599e-02	1.794311e+00	1.793116e+00	3.300000e+00	
594	1.159599e-02	1.794311e+00	1.793116e+00	3.300000e+00	
595	1.161599e-02	1.794311e+00	1.793116e+00	3.300000e+00	
596	1.163599e-02	1.794311e+00	1.793116e+00	3.300000e+00	
597	1.165599e-02	1.794311e+00	1.793116e+00	3.300000e+00	
598	1.167599e-02	1.794311e+00	1.793116e+00	3.300000e+00	
599	1.169599e-02	1.794311e+00	1.793116e+00	3.300000e+00	
600	1.171599e-02	1.794311e+00	1.793116e+00	3.300000e+00	
601	1.173599e-02	1.794311e+00	1.793116e+00	3.300000e+00	
602	1.175599e-02	1.794311e+00	1.793116e+00	3.300000e+00	
603	1.177599e-02	1.794311e+00	1.793116e+00	3.300000e+00	
604	1.179599e-02	1.794311e+00	1.793116e+00	3.300000e+00	
605	1.181599e-02	1.794311e+00	1.793116e+00	3.300000e+00	
606	1.183599e-02	1.794311e+00	1.793116e+00	3.300000e+00	
607	1.185599e-02	1.794311e+00	1.793116e+00	3.300000e+00	
608	1.187599e-02	1.794311e+00	1.793116e+00	3.300000e+00	
609	1.189599e-02	1.794311e+00	1.793116e+00	3.300000e+00	
610	1.191599e-02	1.794311e+00	1.793116e+00	3.300000e+00	
611	1.193599e-02	1.794311e+00	1.793116e+00	3.300000e+00	
612	1.195599e-02	1.794311e+00	1.793116e+00	3.300000e+00	
613	1.197599e-02	1.794311e+00	1.793116e+00	3.300000e+00	
614	1.199599e-02	1.794311e+00	1.793116e+00	3.300000e+00	
615	1.200000e-02	1.794311e+00	1.793116e+00	3.300000e+00	

                            tb001-ga144-test-bringup
                            Transient Analysis  Sat Jun 13 16:37:14  2026
--------------------------------------------------------------------------------
Index   time            v(gio)          v(gan)          v(vcore)        
--------------------------------------------------------------------------------
0	0.000000e+00	5.787345e-04	5.787345e-04	-3.29743e-42	
1	2.000000e-07	5.787345e-04	5.787345e-04	-3.29659e-42	
2	4.000000e-07	5.787345e-04	5.787345e-04	-3.29576e-42	
3	8.000000e-07	5.787345e-04	5.787345e-04	-3.29410e-42	
4	1.600000e-06	5.787345e-04	5.787345e-04	-3.29077e-42	
5	3.200000e-06	5.787345e-04	5.787345e-04	-3.28413e-42	
6	6.400000e-06	5.787345e-04	5.787345e-04	-3.27089e-42	
7	1.280000e-05	5.787345e-04	5.787345e-04	-3.24456e-42	
8	2.560000e-05	5.787345e-04	5.787345e-04	-3.19255e-42	
9	4.560000e-05	5.787345e-04	5.787345e-04	-3.11293e-42	
10	6.560000e-05	5.787345e-04	5.787345e-04	-3.03530e-42	
11	8.560000e-05	5.787345e-04	5.787345e-04	-2.95961e-42	
12	1.056000e-04	5.787345e-04	5.787345e-04	-2.88580e-42	
13	1.256000e-04	5.787345e-04	5.787345e-04	-2.81384e-42	
14	1.456000e-04	5.787345e-04	5.787345e-04	-2.74367e-42	
15	1.656000e-04	5.787345e-04	5.787345e-04	-2.67525e-42	
16	1.856000e-04	5.787345e-04	5.787345e-04	-2.60853e-42	
17	2.056000e-04	5.787345e-04	5.787345e-04	-2.54348e-42	
18	2.256000e-04	5.787345e-04	5.787345e-04	-2.48005e-42	
19	2.456000e-04	5.787345e-04	5.787345e-04	-2.41821e-42	
20	2.656000e-04	5.787345e-04	5.787345e-04	-2.35790e-42	
21	2.856000e-04	5.787345e-04	5.787345e-04	-2.29910e-42	
22	3.056000e-04	5.787345e-04	5.787345e-04	-2.24177e-42	
23	3.256000e-04	5.787345e-04	5.787345e-04	-2.18586e-42	
24	3.456000e-04	5.787345e-04	5.787345e-04	-2.13135e-42	
25	3.656000e-04	5.787345e-04	5.787345e-04	-2.07820e-42	
26	3.856000e-04	5.787345e-04	5.787345e-04	-2.02638e-42	
27	4.056000e-04	5.787345e-04	5.787345e-04	-1.97584e-42	
28	4.256000e-04	5.787345e-04	5.787345e-04	-1.92657e-42	
29	4.456000e-04	5.787345e-04	5.787345e-04	-1.87853e-42	
30	4.656000e-04	5.787345e-04	5.787345e-04	-1.83168e-42	
31	4.856000e-04	5.787345e-04	5.787345e-04	-1.78600e-42	
32	5.056000e-04	5.787345e-04	5.787345e-04	-1.74146e-42	
33	5.256000e-04	5.787345e-04	5.787345e-04	-1.69804e-42	
34	5.456000e-04	5.787345e-04	5.787345e-04	-1.65569e-42	
35	5.656000e-04	5.787345e-04	5.787345e-04	-1.61440e-42	
36	5.856000e-04	5.787345e-04	5.787345e-04	-1.57414e-42	
37	6.056000e-04	5.787345e-04	5.787345e-04	-1.53489e-42	
38	6.256000e-04	5.787345e-04	5.787345e-04	-1.49661e-42	
39	6.456000e-04	5.787345e-04	5.787345e-04	-1.45929e-42	
40	6.656000e-04	5.787345e-04	5.787345e-04	-1.42290e-42	
41	6.856000e-04	5.787345e-04	5.787345e-04	-1.38741e-42	
42	7.056000e-04	5.787345e-04	5.787345e-04	-1.35281e-42	
43	7.256000e-04	5.787345e-04	5.787345e-04	-1.31908e-42	
44	7.456000e-04	5.787345e-04	5.787345e-04	-1.28618e-42	
45	7.656000e-04	5.787345e-04	5.787345e-04	-1.25411e-42	
46	7.856000e-04	5.787345e-04	5.787345e-04	-1.22283e-42	
47	8.056000e-04	5.787345e-04	5.787345e-04	-1.19234e-42	
48	8.256000e-04	5.787345e-04	5.787345e-04	-1.16261e-42	
49	8.456000e-04	5.787345e-04	5.787345e-04	-1.13361e-42	
50	8.656000e-04	5.787345e-04	5.787345e-04	-1.10534e-42	
51	8.856000e-04	5.787345e-04	5.787345e-04	-1.07778e-42	
52	9.056000e-04	5.787345e-04	5.787345e-04	-1.05090e-42	
53	9.256000e-04	5.787345e-04	5.787345e-04	-1.02469e-42	
54	9.456000e-04	5.787345e-04	5.787345e-04	-9.99141e-43	

Index   time            v(gio)          v(gan)          v(vcore)        
--------------------------------------------------------------------------------
55	9.656000e-04	5.787345e-04	5.787345e-04	-9.74225e-43	
56	9.856000e-04	5.787345e-04	5.787345e-04	-9.49930e-43	
57	1.000000e-03	5.787345e-04	5.787345e-04	-9.32814e-43	
58	1.002000e-03	6.605944e-04	6.605944e-04	-9.30464e-43	
59	1.006000e-03	9.282520e-04	9.282520e-04	-9.25777e-43	
60	1.014000e-03	5.941764e-03	5.941764e-03	-9.16472e-43	
61	1.020000e-03	3.300000e+00	3.300000e+00	5.820629e-01	
62	1.021411e-03	3.300000e+00	3.300000e+00	7.779519e-01	
63	1.024233e-03	3.300000e+00	3.300000e+00	1.082823e+00	
64	1.029285e-03	3.300000e+00	3.300000e+00	1.380559e+00	
65	1.035274e-03	3.300000e+00	3.300000e+00	1.559755e+00	
66	1.042868e-03	3.300000e+00	3.300000e+00	1.667450e+00	
67	1.056103e-03	3.300000e+00	3.300000e+00	1.742484e+00	
68	1.075985e-03	3.300000e+00	3.300000e+00	1.767637e+00	
69	1.095985e-03	3.300000e+00	3.300000e+00	1.770125e+00	
70	1.115985e-03	3.300000e+00	3.300000e+00	1.770187e+00	
71	1.135985e-03	3.300000e+00	3.300000e+00	1.770324e+00	
72	1.155985e-03	3.300000e+00	3.300000e+00	1.770238e+00	
73	1.175985e-03	3.300000e+00	3.300000e+00	1.770308e+00	
74	1.195985e-03	3.300000e+00	3.300000e+00	1.770249e+00	
75	1.215985e-03	3.300000e+00	3.300000e+00	1.770295e+00	
76	1.235985e-03	3.300000e+00	3.300000e+00	1.770255e+00	
77	1.255985e-03	3.300000e+00	3.300000e+00	1.770287e+00	
78	1.275985e-03	3.300000e+00	3.300000e+00	1.770259e+00	
79	1.295985e-03	3.300000e+00	3.300000e+00	1.770282e+00	
80	1.315985e-03	3.300000e+00	3.300000e+00	1.770262e+00	
81	1.335985e-03	3.300000e+00	3.300000e+00	1.770279e+00	
82	1.355985e-03	3.300000e+00	3.300000e+00	1.770264e+00	
83	1.375985e-03	3.300000e+00	3.300000e+00	1.770277e+00	
84	1.395985e-03	3.300000e+00	3.300000e+00	1.770265e+00	
85	1.415985e-03	3.300000e+00	3.300000e+00	1.770276e+00	
86	1.435985e-03	3.300000e+00	3.300000e+00	1.770266e+00	
87	1.455985e-03	3.300000e+00	3.300000e+00	1.770275e+00	
88	1.475985e-03	3.300000e+00	3.300000e+00	1.770266e+00	
89	1.495985e-03	3.300000e+00	3.300000e+00	1.770274e+00	
90	1.515985e-03	3.300000e+00	3.300000e+00	1.770267e+00	
91	1.535985e-03	3.300000e+00	3.300000e+00	1.770274e+00	
92	1.555985e-03	3.300000e+00	3.300000e+00	1.770267e+00	
93	1.575985e-03	3.300000e+00	3.300000e+00	1.770273e+00	
94	1.595985e-03	3.300000e+00	3.300000e+00	1.770267e+00	
95	1.615985e-03	3.300000e+00	3.300000e+00	1.770273e+00	
96	1.635985e-03	3.300000e+00	3.300000e+00	1.770268e+00	
97	1.655985e-03	3.300000e+00	3.300000e+00	1.770273e+00	
98	1.675985e-03	3.300000e+00	3.300000e+00	1.770268e+00	
99	1.695985e-03	3.300000e+00	3.300000e+00	1.770272e+00	
100	1.715985e-03	3.300000e+00	3.300000e+00	1.770268e+00	
101	1.735985e-03	3.300000e+00	3.300000e+00	1.770272e+00	
102	1.755985e-03	3.300000e+00	3.300000e+00	1.770268e+00	
103	1.775985e-03	3.300000e+00	3.300000e+00	1.770272e+00	
104	1.795985e-03	3.300000e+00	3.300000e+00	1.770268e+00	
105	1.815985e-03	3.300000e+00	3.300000e+00	1.770272e+00	
106	1.835985e-03	3.300000e+00	3.300000e+00	1.770269e+00	
107	1.855985e-03	3.300000e+00	3.300000e+00	1.770272e+00	
108	1.875985e-03	3.300000e+00	3.300000e+00	1.770269e+00	
109	1.895985e-03	3.300000e+00	3.300000e+00	1.770271e+00	
110	1.915985e-03	3.300000e+00	3.300000e+00	1.770269e+00	
111	1.935985e-03	3.300000e+00	3.300000e+00	1.770271e+00	
112	1.955985e-03	3.300000e+00	3.300000e+00	1.770269e+00	

Index   time            v(gio)          v(gan)          v(vcore)        
--------------------------------------------------------------------------------
113	1.975985e-03	3.300000e+00	3.300000e+00	1.770271e+00	
114	1.995985e-03	3.300000e+00	3.300000e+00	1.770269e+00	
115	2.015985e-03	3.300000e+00	3.300000e+00	1.770271e+00	
116	2.035985e-03	3.300000e+00	3.300000e+00	1.770269e+00	
117	2.055985e-03	3.300000e+00	3.300000e+00	1.770271e+00	
118	2.075985e-03	3.300000e+00	3.300000e+00	1.770269e+00	
119	2.095985e-03	3.300000e+00	3.300000e+00	1.770271e+00	
120	2.115985e-03	3.300000e+00	3.300000e+00	1.770269e+00	
121	2.135985e-03	3.300000e+00	3.300000e+00	1.770271e+00	
122	2.155985e-03	3.300000e+00	3.300000e+00	1.770269e+00	
123	2.175985e-03	3.300000e+00	3.300000e+00	1.770271e+00	
124	2.195985e-03	3.300000e+00	3.300000e+00	1.770269e+00	
125	2.215985e-03	3.300000e+00	3.300000e+00	1.770271e+00	
126	2.235985e-03	3.300000e+00	3.300000e+00	1.770269e+00	
127	2.255985e-03	3.300000e+00	3.300000e+00	1.770271e+00	
128	2.275985e-03	3.300000e+00	3.300000e+00	1.770269e+00	
129	2.295985e-03	3.300000e+00	3.300000e+00	1.770271e+00	
130	2.315985e-03	3.300000e+00	3.300000e+00	1.770270e+00	
131	2.335985e-03	3.300000e+00	3.300000e+00	1.770270e+00	
132	2.355985e-03	3.300000e+00	3.300000e+00	1.770270e+00	
133	2.375985e-03	3.300000e+00	3.300000e+00	1.770270e+00	
134	2.395985e-03	3.300000e+00	3.300000e+00	1.770270e+00	
135	2.415985e-03	3.300000e+00	3.300000e+00	1.770270e+00	
136	2.435985e-03	3.300000e+00	3.300000e+00	1.770270e+00	
137	2.455985e-03	3.300000e+00	3.300000e+00	1.770270e+00	
138	2.475985e-03	3.300000e+00	3.300000e+00	1.770270e+00	
139	2.495985e-03	3.300000e+00	3.300000e+00	1.770270e+00	
140	2.515985e-03	3.300000e+00	3.300000e+00	1.770270e+00	
141	2.535985e-03	3.300000e+00	3.300000e+00	1.770270e+00	
142	2.555985e-03	3.300000e+00	3.300000e+00	1.770270e+00	
143	2.575985e-03	3.300000e+00	3.300000e+00	1.770270e+00	
144	2.595985e-03	3.300000e+00	3.300000e+00	1.770270e+00	
145	2.615985e-03	3.300000e+00	3.300000e+00	1.770270e+00	
146	2.635985e-03	3.300000e+00	3.300000e+00	1.770270e+00	
147	2.655985e-03	3.300000e+00	3.300000e+00	1.770270e+00	
148	2.675985e-03	3.300000e+00	3.300000e+00	1.770270e+00	
149	2.695985e-03	3.300000e+00	3.300000e+00	1.770270e+00	
150	2.715985e-03	3.300000e+00	3.300000e+00	1.770270e+00	
151	2.735985e-03	3.300000e+00	3.300000e+00	1.770270e+00	
152	2.755985e-03	3.300000e+00	3.300000e+00	1.770270e+00	
153	2.775985e-03	3.300000e+00	3.300000e+00	1.770270e+00	
154	2.795985e-03	3.300000e+00	3.300000e+00	1.770270e+00	
155	2.815985e-03	3.300000e+00	3.300000e+00	1.770270e+00	
156	2.835985e-03	3.300000e+00	3.300000e+00	1.770270e+00	
157	2.855985e-03	3.300000e+00	3.300000e+00	1.770270e+00	
158	2.875985e-03	3.300000e+00	3.300000e+00	1.770270e+00	
159	2.895985e-03	3.300000e+00	3.300000e+00	1.770270e+00	
160	2.915985e-03	3.300000e+00	3.300000e+00	1.770270e+00	
161	2.935985e-03	3.300000e+00	3.300000e+00	1.770270e+00	
162	2.955985e-03	3.300000e+00	3.300000e+00	1.770270e+00	
163	2.975985e-03	3.300000e+00	3.300000e+00	1.770270e+00	
164	2.995985e-03	3.300000e+00	3.300000e+00	1.770270e+00	
165	3.015985e-03	3.300000e+00	3.300000e+00	1.770270e+00	
166	3.035985e-03	3.300000e+00	3.300000e+00	1.770270e+00	
167	3.055985e-03	3.300000e+00	3.300000e+00	1.770270e+00	
168	3.075985e-03	3.300000e+00	3.300000e+00	1.770270e+00	
169	3.095985e-03	3.300000e+00	3.300000e+00	1.770270e+00	
170	3.115985e-03	3.300000e+00	3.300000e+00	1.770270e+00	

Index   time            v(gio)          v(gan)          v(vcore)        
--------------------------------------------------------------------------------
171	3.135985e-03	3.300000e+00	3.300000e+00	1.770270e+00	
172	3.155985e-03	3.300000e+00	3.300000e+00	1.770270e+00	
173	3.175985e-03	3.300000e+00	3.300000e+00	1.770270e+00	
174	3.195985e-03	3.300000e+00	3.300000e+00	1.770270e+00	
175	3.215985e-03	3.300000e+00	3.300000e+00	1.770270e+00	
176	3.235985e-03	3.300000e+00	3.300000e+00	1.770270e+00	
177	3.255985e-03	3.300000e+00	3.300000e+00	1.770270e+00	
178	3.275985e-03	3.300000e+00	3.300000e+00	1.770270e+00	
179	3.295985e-03	3.300000e+00	3.300000e+00	1.770270e+00	
180	3.315985e-03	3.300000e+00	3.300000e+00	1.770270e+00	
181	3.335985e-03	3.300000e+00	3.300000e+00	1.770270e+00	
182	3.355985e-03	3.300000e+00	3.300000e+00	1.770270e+00	
183	3.375985e-03	3.300000e+00	3.300000e+00	1.770270e+00	
184	3.395985e-03	3.300000e+00	3.300000e+00	1.770270e+00	
185	3.415985e-03	3.300000e+00	3.300000e+00	1.770270e+00	
186	3.435985e-03	3.300000e+00	3.300000e+00	1.770270e+00	
187	3.455985e-03	3.300000e+00	3.300000e+00	1.770270e+00	
188	3.475985e-03	3.300000e+00	3.300000e+00	1.770270e+00	
189	3.495985e-03	3.300000e+00	3.300000e+00	1.770270e+00	
190	3.515985e-03	3.300000e+00	3.300000e+00	1.770270e+00	
191	3.535985e-03	3.300000e+00	3.300000e+00	1.770270e+00	
192	3.555985e-03	3.300000e+00	3.300000e+00	1.770270e+00	
193	3.575985e-03	3.300000e+00	3.300000e+00	1.770270e+00	
194	3.595985e-03	3.300000e+00	3.300000e+00	1.770270e+00	
195	3.615985e-03	3.300000e+00	3.300000e+00	1.770270e+00	
196	3.635985e-03	3.300000e+00	3.300000e+00	1.770270e+00	
197	3.655985e-03	3.300000e+00	3.300000e+00	1.770270e+00	
198	3.675985e-03	3.300000e+00	3.300000e+00	1.770270e+00	
199	3.695985e-03	3.300000e+00	3.300000e+00	1.770270e+00	
200	3.715985e-03	3.300000e+00	3.300000e+00	1.770270e+00	
201	3.735985e-03	3.300000e+00	3.300000e+00	1.770270e+00	
202	3.755985e-03	3.300000e+00	3.300000e+00	1.770270e+00	
203	3.775985e-03	3.300000e+00	3.300000e+00	1.770270e+00	
204	3.795985e-03	3.300000e+00	3.300000e+00	1.770270e+00	
205	3.815985e-03	3.300000e+00	3.300000e+00	1.770270e+00	
206	3.835985e-03	3.300000e+00	3.300000e+00	1.770270e+00	
207	3.855985e-03	3.300000e+00	3.300000e+00	1.770270e+00	
208	3.875985e-03	3.300000e+00	3.300000e+00	1.770270e+00	
209	3.895985e-03	3.300000e+00	3.300000e+00	1.770270e+00	
210	3.915985e-03	3.300000e+00	3.300000e+00	1.770270e+00	
211	3.935985e-03	3.300000e+00	3.300000e+00	1.770270e+00	
212	3.955985e-03	3.300000e+00	3.300000e+00	1.770270e+00	
213	3.975985e-03	3.300000e+00	3.300000e+00	1.770270e+00	
214	3.995985e-03	3.300000e+00	3.300000e+00	1.770270e+00	
215	4.015985e-03	3.300000e+00	3.300000e+00	1.770270e+00	
216	4.035985e-03	3.300000e+00	3.300000e+00	1.770270e+00	
217	4.055985e-03	3.300000e+00	3.300000e+00	1.770270e+00	
218	4.075985e-03	3.300000e+00	3.300000e+00	1.770270e+00	
219	4.095985e-03	3.300000e+00	3.300000e+00	1.770270e+00	
220	4.115985e-03	3.300000e+00	3.300000e+00	1.770270e+00	
221	4.135985e-03	3.300000e+00	3.300000e+00	1.770270e+00	
222	4.155985e-03	3.300000e+00	3.300000e+00	1.770270e+00	
223	4.175985e-03	3.300000e+00	3.300000e+00	1.770270e+00	
224	4.195985e-03	3.300000e+00	3.300000e+00	1.770270e+00	
225	4.215985e-03	3.300000e+00	3.300000e+00	1.770270e+00	
226	4.235985e-03	3.300000e+00	3.300000e+00	1.770270e+00	
227	4.255985e-03	3.300000e+00	3.300000e+00	1.770270e+00	
228	4.275985e-03	3.300000e+00	3.300000e+00	1.770270e+00	

Index   time            v(gio)          v(gan)          v(vcore)        
--------------------------------------------------------------------------------
229	4.295985e-03	3.300000e+00	3.300000e+00	1.770270e+00	
230	4.315985e-03	3.300000e+00	3.300000e+00	1.770270e+00	
231	4.335985e-03	3.300000e+00	3.300000e+00	1.770270e+00	
232	4.355985e-03	3.300000e+00	3.300000e+00	1.770270e+00	
233	4.375985e-03	3.300000e+00	3.300000e+00	1.770270e+00	
234	4.395985e-03	3.300000e+00	3.300000e+00	1.770270e+00	
235	4.415985e-03	3.300000e+00	3.300000e+00	1.770270e+00	
236	4.435985e-03	3.300000e+00	3.300000e+00	1.770270e+00	
237	4.455985e-03	3.300000e+00	3.300000e+00	1.770270e+00	
238	4.475985e-03	3.300000e+00	3.300000e+00	1.770270e+00	
239	4.495985e-03	3.300000e+00	3.300000e+00	1.770270e+00	
240	4.515985e-03	3.300000e+00	3.300000e+00	1.770270e+00	
241	4.535985e-03	3.300000e+00	3.300000e+00	1.770270e+00	
242	4.555985e-03	3.300000e+00	3.300000e+00	1.770270e+00	
243	4.575985e-03	3.300000e+00	3.300000e+00	1.770270e+00	
244	4.595985e-03	3.300000e+00	3.300000e+00	1.770270e+00	
245	4.615985e-03	3.300000e+00	3.300000e+00	1.770270e+00	
246	4.635985e-03	3.300000e+00	3.300000e+00	1.770270e+00	
247	4.655985e-03	3.300000e+00	3.300000e+00	1.770270e+00	
248	4.675985e-03	3.300000e+00	3.300000e+00	1.770270e+00	
249	4.695985e-03	3.300000e+00	3.300000e+00	1.770270e+00	
250	4.715985e-03	3.300000e+00	3.300000e+00	1.770270e+00	
251	4.735985e-03	3.300000e+00	3.300000e+00	1.770270e+00	
252	4.755985e-03	3.300000e+00	3.300000e+00	1.770270e+00	
253	4.775985e-03	3.300000e+00	3.300000e+00	1.770270e+00	
254	4.795985e-03	3.300000e+00	3.300000e+00	1.770270e+00	
255	4.815985e-03	3.300000e+00	3.300000e+00	1.770270e+00	
256	4.835985e-03	3.300000e+00	3.300000e+00	1.770270e+00	
257	4.855985e-03	3.300000e+00	3.300000e+00	1.770270e+00	
258	4.875985e-03	3.300000e+00	3.300000e+00	1.770270e+00	
259	4.895985e-03	3.300000e+00	3.300000e+00	1.770270e+00	
260	4.915985e-03	3.300000e+00	3.300000e+00	1.770270e+00	
261	4.935985e-03	3.300000e+00	3.300000e+00	1.770270e+00	
262	4.955985e-03	3.300000e+00	3.300000e+00	1.770270e+00	
263	4.975985e-03	3.300000e+00	3.300000e+00	1.770270e+00	
264	4.995985e-03	3.300000e+00	3.300000e+00	1.770270e+00	
265	5.015985e-03	3.300000e+00	3.300000e+00	1.770270e+00	
266	5.035985e-03	3.300000e+00	3.300000e+00	1.770270e+00	
267	5.055985e-03	3.300000e+00	3.300000e+00	1.770270e+00	
268	5.075985e-03	3.300000e+00	3.300000e+00	1.770270e+00	
269	5.095985e-03	3.300000e+00	3.300000e+00	1.770270e+00	
270	5.115985e-03	3.300000e+00	3.300000e+00	1.770270e+00	
271	5.135985e-03	3.300000e+00	3.300000e+00	1.770270e+00	
272	5.155985e-03	3.300000e+00	3.300000e+00	1.770270e+00	
273	5.175985e-03	3.300000e+00	3.300000e+00	1.770270e+00	
274	5.195985e-03	3.300000e+00	3.300000e+00	1.770270e+00	
275	5.215985e-03	3.300000e+00	3.300000e+00	1.770270e+00	
276	5.235985e-03	3.300000e+00	3.300000e+00	1.770270e+00	
277	5.255985e-03	3.300000e+00	3.300000e+00	1.770270e+00	
278	5.275985e-03	3.300000e+00	3.300000e+00	1.770270e+00	
279	5.295985e-03	3.300000e+00	3.300000e+00	1.770270e+00	
280	5.315985e-03	3.300000e+00	3.300000e+00	1.770270e+00	
281	5.335985e-03	3.300000e+00	3.300000e+00	1.770270e+00	
282	5.355985e-03	3.300000e+00	3.300000e+00	1.770270e+00	
283	5.375985e-03	3.300000e+00	3.300000e+00	1.770270e+00	
284	5.395985e-03	3.300000e+00	3.300000e+00	1.770270e+00	
285	5.415985e-03	3.300000e+00	3.300000e+00	1.770270e+00	
286	5.435985e-03	3.300000e+00	3.300000e+00	1.770270e+00	

Index   time            v(gio)          v(gan)          v(vcore)        
--------------------------------------------------------------------------------
287	5.455985e-03	3.300000e+00	3.300000e+00	1.770270e+00	
288	5.475985e-03	3.300000e+00	3.300000e+00	1.770270e+00	
289	5.495985e-03	3.300000e+00	3.300000e+00	1.770270e+00	
290	5.515985e-03	3.300000e+00	3.300000e+00	1.770270e+00	
291	5.535985e-03	3.300000e+00	3.300000e+00	1.770270e+00	
292	5.555985e-03	3.300000e+00	3.300000e+00	1.770270e+00	
293	5.575985e-03	3.300000e+00	3.300000e+00	1.770270e+00	
294	5.595985e-03	3.300000e+00	3.300000e+00	1.770270e+00	
295	5.615985e-03	3.300000e+00	3.300000e+00	1.770270e+00	
296	5.635985e-03	3.300000e+00	3.300000e+00	1.770270e+00	
297	5.655985e-03	3.300000e+00	3.300000e+00	1.770270e+00	
298	5.675985e-03	3.300000e+00	3.300000e+00	1.770270e+00	
299	5.695985e-03	3.300000e+00	3.300000e+00	1.770270e+00	
300	5.715985e-03	3.300000e+00	3.300000e+00	1.770270e+00	
301	5.735985e-03	3.300000e+00	3.300000e+00	1.770270e+00	
302	5.755985e-03	3.300000e+00	3.300000e+00	1.770270e+00	
303	5.775985e-03	3.300000e+00	3.300000e+00	1.770270e+00	
304	5.795985e-03	3.300000e+00	3.300000e+00	1.770270e+00	
305	5.815985e-03	3.300000e+00	3.300000e+00	1.770270e+00	
306	5.835985e-03	3.300000e+00	3.300000e+00	1.770270e+00	
307	5.855985e-03	3.300000e+00	3.300000e+00	1.770270e+00	
308	5.875985e-03	3.300000e+00	3.300000e+00	1.770270e+00	
309	5.895985e-03	3.300000e+00	3.300000e+00	1.770270e+00	
310	5.915985e-03	3.300000e+00	3.300000e+00	1.770270e+00	
311	5.935985e-03	3.300000e+00	3.300000e+00	1.770270e+00	
312	5.955985e-03	3.300000e+00	3.300000e+00	1.770270e+00	
313	5.975985e-03	3.300000e+00	3.300000e+00	1.770270e+00	
314	5.995985e-03	3.300000e+00	3.300000e+00	1.770270e+00	
315	6.015985e-03	3.300000e+00	3.300000e+00	1.770270e+00	
316	6.035985e-03	3.300000e+00	3.300000e+00	1.770270e+00	
317	6.055985e-03	3.300000e+00	3.300000e+00	1.770270e+00	
318	6.075985e-03	3.300000e+00	3.300000e+00	1.770270e+00	
319	6.095985e-03	3.300000e+00	3.300000e+00	1.770270e+00	
320	6.115985e-03	3.300000e+00	3.300000e+00	1.770270e+00	
321	6.135985e-03	3.300000e+00	3.300000e+00	1.770270e+00	
322	6.155985e-03	3.300000e+00	3.300000e+00	1.770270e+00	
323	6.175985e-03	3.300000e+00	3.300000e+00	1.770270e+00	
324	6.195985e-03	3.300000e+00	3.300000e+00	1.770270e+00	
325	6.215985e-03	3.300000e+00	3.300000e+00	1.770270e+00	
326	6.235985e-03	3.300000e+00	3.300000e+00	1.770270e+00	
327	6.255985e-03	3.300000e+00	3.300000e+00	1.770270e+00	
328	6.275985e-03	3.300000e+00	3.300000e+00	1.770270e+00	
329	6.295985e-03	3.300000e+00	3.300000e+00	1.770270e+00	
330	6.315985e-03	3.300000e+00	3.300000e+00	1.770270e+00	
331	6.335985e-03	3.300000e+00	3.300000e+00	1.770270e+00	
332	6.355985e-03	3.300000e+00	3.300000e+00	1.770270e+00	
333	6.375985e-03	3.300000e+00	3.300000e+00	1.770270e+00	
334	6.395985e-03	3.300000e+00	3.300000e+00	1.770270e+00	
335	6.415985e-03	3.300000e+00	3.300000e+00	1.770270e+00	
336	6.435985e-03	3.300000e+00	3.300000e+00	1.770270e+00	
337	6.455985e-03	3.300000e+00	3.300000e+00	1.770270e+00	
338	6.475985e-03	3.300000e+00	3.300000e+00	1.770270e+00	
339	6.495985e-03	3.300000e+00	3.300000e+00	1.770270e+00	
340	6.515985e-03	3.300000e+00	3.300000e+00	1.770270e+00	
341	6.535985e-03	3.300000e+00	3.300000e+00	1.770270e+00	
342	6.555985e-03	3.300000e+00	3.300000e+00	1.770270e+00	
343	6.575985e-03	3.300000e+00	3.300000e+00	1.770270e+00	
344	6.595985e-03	3.300000e+00	3.300000e+00	1.770270e+00	

Index   time            v(gio)          v(gan)          v(vcore)        
--------------------------------------------------------------------------------
345	6.615985e-03	3.300000e+00	3.300000e+00	1.770270e+00	
346	6.635985e-03	3.300000e+00	3.300000e+00	1.770270e+00	
347	6.655985e-03	3.300000e+00	3.300000e+00	1.770270e+00	
348	6.675985e-03	3.300000e+00	3.300000e+00	1.770270e+00	
349	6.695985e-03	3.300000e+00	3.300000e+00	1.770270e+00	
350	6.715985e-03	3.300000e+00	3.300000e+00	1.770270e+00	
351	6.735985e-03	3.300000e+00	3.300000e+00	1.770270e+00	
352	6.755985e-03	3.300000e+00	3.300000e+00	1.770270e+00	
353	6.775985e-03	3.300000e+00	3.300000e+00	1.770270e+00	
354	6.795985e-03	3.300000e+00	3.300000e+00	1.770270e+00	
355	6.815985e-03	3.300000e+00	3.300000e+00	1.770270e+00	
356	6.835985e-03	3.300000e+00	3.300000e+00	1.770270e+00	
357	6.855985e-03	3.300000e+00	3.300000e+00	1.770270e+00	
358	6.875985e-03	3.300000e+00	3.300000e+00	1.770270e+00	
359	6.895985e-03	3.300000e+00	3.300000e+00	1.770270e+00	
360	6.915985e-03	3.300000e+00	3.300000e+00	1.770270e+00	
361	6.935985e-03	3.300000e+00	3.300000e+00	1.770270e+00	
362	6.955985e-03	3.300000e+00	3.300000e+00	1.770270e+00	
363	6.975985e-03	3.300000e+00	3.300000e+00	1.770270e+00	
364	6.995985e-03	3.300000e+00	3.300000e+00	1.770270e+00	
365	7.015985e-03	3.300000e+00	3.300000e+00	1.770270e+00	
366	7.035985e-03	3.300000e+00	3.300000e+00	1.770270e+00	
367	7.055985e-03	3.300000e+00	3.300000e+00	1.770270e+00	
368	7.075985e-03	3.300000e+00	3.300000e+00	1.770270e+00	
369	7.095985e-03	3.300000e+00	3.300000e+00	1.770270e+00	
370	7.115985e-03	3.300000e+00	3.300000e+00	1.770270e+00	
371	7.135985e-03	3.300000e+00	3.300000e+00	1.770270e+00	
372	7.155985e-03	3.300000e+00	3.300000e+00	1.770270e+00	
373	7.175985e-03	3.300000e+00	3.300000e+00	1.770270e+00	
374	7.195985e-03	3.300000e+00	3.300000e+00	1.770270e+00	
375	7.215985e-03	3.300000e+00	3.300000e+00	1.770270e+00	
376	7.235985e-03	3.300000e+00	3.300000e+00	1.770270e+00	
377	7.255985e-03	3.300000e+00	3.300000e+00	1.770270e+00	
378	7.275985e-03	3.300000e+00	3.300000e+00	1.770270e+00	
379	7.295985e-03	3.300000e+00	3.300000e+00	1.770270e+00	
380	7.315985e-03	3.300000e+00	3.300000e+00	1.770270e+00	
381	7.335985e-03	3.300000e+00	3.300000e+00	1.770270e+00	
382	7.355985e-03	3.300000e+00	3.300000e+00	1.770270e+00	
383	7.375985e-03	3.300000e+00	3.300000e+00	1.770270e+00	
384	7.395985e-03	3.300000e+00	3.300000e+00	1.770270e+00	
385	7.415985e-03	3.300000e+00	3.300000e+00	1.770270e+00	
386	7.435985e-03	3.300000e+00	3.300000e+00	1.770270e+00	
387	7.455985e-03	3.300000e+00	3.300000e+00	1.770270e+00	
388	7.475985e-03	3.300000e+00	3.300000e+00	1.770270e+00	
389	7.495985e-03	3.300000e+00	3.300000e+00	1.770270e+00	
390	7.515985e-03	3.300000e+00	3.300000e+00	1.770270e+00	
391	7.535985e-03	3.300000e+00	3.300000e+00	1.770270e+00	
392	7.555985e-03	3.300000e+00	3.300000e+00	1.770270e+00	
393	7.575985e-03	3.300000e+00	3.300000e+00	1.770270e+00	
394	7.595985e-03	3.300000e+00	3.300000e+00	1.770270e+00	
395	7.615985e-03	3.300000e+00	3.300000e+00	1.770270e+00	
396	7.635985e-03	3.300000e+00	3.300000e+00	1.770270e+00	
397	7.655985e-03	3.300000e+00	3.300000e+00	1.770270e+00	
398	7.675985e-03	3.300000e+00	3.300000e+00	1.770270e+00	
399	7.695985e-03	3.300000e+00	3.300000e+00	1.770270e+00	
400	7.715985e-03	3.300000e+00	3.300000e+00	1.770270e+00	
401	7.735985e-03	3.300000e+00	3.300000e+00	1.770270e+00	
402	7.755985e-03	3.300000e+00	3.300000e+00	1.770270e+00	

Index   time            v(gio)          v(gan)          v(vcore)        
--------------------------------------------------------------------------------
403	7.775985e-03	3.300000e+00	3.300000e+00	1.770270e+00	
404	7.795985e-03	3.300000e+00	3.300000e+00	1.770270e+00	
405	7.815985e-03	3.300000e+00	3.300000e+00	1.770270e+00	
406	7.835985e-03	3.300000e+00	3.300000e+00	1.770270e+00	
407	7.855985e-03	3.300000e+00	3.300000e+00	1.770270e+00	
408	7.875985e-03	3.300000e+00	3.300000e+00	1.770270e+00	
409	7.895985e-03	3.300000e+00	3.300000e+00	1.770270e+00	
410	7.915985e-03	3.300000e+00	3.300000e+00	1.770270e+00	
411	7.935985e-03	3.300000e+00	3.300000e+00	1.770270e+00	
412	7.955985e-03	3.300000e+00	3.300000e+00	1.770270e+00	
413	7.975985e-03	3.300000e+00	3.300000e+00	1.770270e+00	
414	7.995985e-03	3.300000e+00	3.300000e+00	1.770270e+00	
415	8.015985e-03	3.300000e+00	3.300000e+00	1.770270e+00	
416	8.035985e-03	3.300000e+00	3.300000e+00	1.770270e+00	
417	8.055985e-03	3.300000e+00	3.300000e+00	1.770270e+00	
418	8.075985e-03	3.300000e+00	3.300000e+00	1.770270e+00	
419	8.095985e-03	3.300000e+00	3.300000e+00	1.770270e+00	
420	8.115985e-03	3.300000e+00	3.300000e+00	1.770270e+00	
421	8.135985e-03	3.300000e+00	3.300000e+00	1.770270e+00	
422	8.155985e-03	3.300000e+00	3.300000e+00	1.770270e+00	
423	8.175985e-03	3.300000e+00	3.300000e+00	1.770270e+00	
424	8.195985e-03	3.300000e+00	3.300000e+00	1.770270e+00	
425	8.215985e-03	3.300000e+00	3.300000e+00	1.770270e+00	
426	8.235985e-03	3.300000e+00	3.300000e+00	1.770270e+00	
427	8.255985e-03	3.300000e+00	3.300000e+00	1.770270e+00	
428	8.275985e-03	3.300000e+00	3.300000e+00	1.770270e+00	
429	8.295985e-03	3.300000e+00	3.300000e+00	1.770270e+00	
430	8.315985e-03	3.300000e+00	3.300000e+00	1.770270e+00	
431	8.335985e-03	3.300000e+00	3.300000e+00	1.770270e+00	
432	8.355985e-03	3.300000e+00	3.300000e+00	1.770270e+00	
433	8.375985e-03	3.300000e+00	3.300000e+00	1.770270e+00	
434	8.395985e-03	3.300000e+00	3.300000e+00	1.770270e+00	
435	8.415985e-03	3.300000e+00	3.300000e+00	1.770270e+00	
436	8.435985e-03	3.300000e+00	3.300000e+00	1.770270e+00	
437	8.455985e-03	3.300000e+00	3.300000e+00	1.770270e+00	
438	8.475985e-03	3.300000e+00	3.300000e+00	1.770270e+00	
439	8.495985e-03	3.300000e+00	3.300000e+00	1.770270e+00	
440	8.515985e-03	3.300000e+00	3.300000e+00	1.770270e+00	
441	8.535985e-03	3.300000e+00	3.300000e+00	1.770270e+00	
442	8.555985e-03	3.300000e+00	3.300000e+00	1.770270e+00	
443	8.575985e-03	3.300000e+00	3.300000e+00	1.770270e+00	
444	8.595985e-03	3.300000e+00	3.300000e+00	1.770270e+00	
445	8.615985e-03	3.300000e+00	3.300000e+00	1.770270e+00	
446	8.635985e-03	3.300000e+00	3.300000e+00	1.770270e+00	
447	8.655985e-03	3.300000e+00	3.300000e+00	1.770270e+00	
448	8.675985e-03	3.300000e+00	3.300000e+00	1.770270e+00	
449	8.695985e-03	3.300000e+00	3.300000e+00	1.770270e+00	
450	8.715985e-03	3.300000e+00	3.300000e+00	1.770270e+00	
451	8.735985e-03	3.300000e+00	3.300000e+00	1.770270e+00	
452	8.755985e-03	3.300000e+00	3.300000e+00	1.770270e+00	
453	8.775985e-03	3.300000e+00	3.300000e+00	1.770270e+00	
454	8.795985e-03	3.300000e+00	3.300000e+00	1.770270e+00	
455	8.815985e-03	3.300000e+00	3.300000e+00	1.770270e+00	
456	8.835985e-03	3.300000e+00	3.300000e+00	1.770270e+00	
457	8.855985e-03	3.300000e+00	3.300000e+00	1.770270e+00	
458	8.875985e-03	3.300000e+00	3.300000e+00	1.770270e+00	
459	8.895985e-03	3.300000e+00	3.300000e+00	1.770270e+00	
460	8.915985e-03	3.300000e+00	3.300000e+00	1.770270e+00	

Index   time            v(gio)          v(gan)          v(vcore)        
--------------------------------------------------------------------------------
461	8.935985e-03	3.300000e+00	3.300000e+00	1.770270e+00	
462	8.955985e-03	3.300000e+00	3.300000e+00	1.770270e+00	
463	8.975985e-03	3.300000e+00	3.300000e+00	1.770270e+00	
464	8.995985e-03	3.300000e+00	3.300000e+00	1.770270e+00	
465	9.015985e-03	3.300000e+00	3.300000e+00	1.770270e+00	
466	9.035985e-03	3.300000e+00	3.300000e+00	1.770270e+00	
467	9.055985e-03	3.300000e+00	3.300000e+00	1.770270e+00	
468	9.075985e-03	3.300000e+00	3.300000e+00	1.770270e+00	
469	9.095985e-03	3.300000e+00	3.300000e+00	1.770270e+00	
470	9.115985e-03	3.300000e+00	3.300000e+00	1.770270e+00	
471	9.135985e-03	3.300000e+00	3.300000e+00	1.770270e+00	
472	9.155985e-03	3.300000e+00	3.300000e+00	1.770270e+00	
473	9.175985e-03	3.300000e+00	3.300000e+00	1.770270e+00	
474	9.195985e-03	3.300000e+00	3.300000e+00	1.770270e+00	
475	9.215985e-03	3.300000e+00	3.300000e+00	1.770270e+00	
476	9.235985e-03	3.300000e+00	3.300000e+00	1.770270e+00	
477	9.255985e-03	3.300000e+00	3.300000e+00	1.770270e+00	
478	9.275985e-03	3.300000e+00	3.300000e+00	1.770270e+00	
479	9.295985e-03	3.300000e+00	3.300000e+00	1.770270e+00	
480	9.315985e-03	3.300000e+00	3.300000e+00	1.770270e+00	
481	9.335985e-03	3.300000e+00	3.300000e+00	1.770270e+00	
482	9.355985e-03	3.300000e+00	3.300000e+00	1.770270e+00	
483	9.375985e-03	3.300000e+00	3.300000e+00	1.770270e+00	
484	9.395985e-03	3.300000e+00	3.300000e+00	1.770270e+00	
485	9.415985e-03	3.300000e+00	3.300000e+00	1.770270e+00	
486	9.435985e-03	3.300000e+00	3.300000e+00	1.770270e+00	
487	9.455985e-03	3.300000e+00	3.300000e+00	1.770270e+00	
488	9.475985e-03	3.300000e+00	3.300000e+00	1.770270e+00	
489	9.495985e-03	3.300000e+00	3.300000e+00	1.770270e+00	
490	9.515985e-03	3.300000e+00	3.300000e+00	1.770270e+00	
491	9.535985e-03	3.300000e+00	3.300000e+00	1.770270e+00	
492	9.555985e-03	3.300000e+00	3.300000e+00	1.770270e+00	
493	9.575985e-03	3.300000e+00	3.300000e+00	1.770270e+00	
494	9.595985e-03	3.300000e+00	3.300000e+00	1.770270e+00	
495	9.615985e-03	3.300000e+00	3.300000e+00	1.770270e+00	
496	9.635985e-03	3.300000e+00	3.300000e+00	1.770270e+00	
497	9.655985e-03	3.300000e+00	3.300000e+00	1.770270e+00	
498	9.675985e-03	3.300000e+00	3.300000e+00	1.770270e+00	
499	9.695985e-03	3.300000e+00	3.300000e+00	1.770270e+00	
500	9.715985e-03	3.300000e+00	3.300000e+00	1.770270e+00	
501	9.735985e-03	3.300000e+00	3.300000e+00	1.770270e+00	
502	9.755985e-03	3.300000e+00	3.300000e+00	1.770270e+00	
503	9.775985e-03	3.300000e+00	3.300000e+00	1.770270e+00	
504	9.795985e-03	3.300000e+00	3.300000e+00	1.770270e+00	
505	9.815985e-03	3.300000e+00	3.300000e+00	1.770270e+00	
506	9.835985e-03	3.300000e+00	3.300000e+00	1.770270e+00	
507	9.855985e-03	3.300000e+00	3.300000e+00	1.770270e+00	
508	9.875985e-03	3.300000e+00	3.300000e+00	1.770270e+00	
509	9.895985e-03	3.300000e+00	3.300000e+00	1.770270e+00	
510	9.915985e-03	3.300000e+00	3.300000e+00	1.770270e+00	
511	9.935985e-03	3.300000e+00	3.300000e+00	1.770270e+00	
512	9.955985e-03	3.300000e+00	3.300000e+00	1.770270e+00	
513	9.975985e-03	3.300000e+00	3.300000e+00	1.770270e+00	
514	9.995985e-03	3.300000e+00	3.300000e+00	1.770270e+00	
515	1.001599e-02	3.300000e+00	3.300000e+00	1.770270e+00	
516	1.003599e-02	3.300000e+00	3.300000e+00	1.770270e+00	
517	1.005599e-02	3.300000e+00	3.300000e+00	1.770270e+00	
518	1.007599e-02	3.300000e+00	3.300000e+00	1.770270e+00	

Index   time            v(gio)          v(gan)          v(vcore)        
--------------------------------------------------------------------------------
519	1.009599e-02	3.300000e+00	3.300000e+00	1.770270e+00	
520	1.011599e-02	3.300000e+00	3.300000e+00	1.770270e+00	
521	1.013599e-02	3.300000e+00	3.300000e+00	1.770270e+00	
522	1.015599e-02	3.300000e+00	3.300000e+00	1.770270e+00	
523	1.017599e-02	3.300000e+00	3.300000e+00	1.770270e+00	
524	1.019599e-02	3.300000e+00	3.300000e+00	1.770270e+00	
525	1.021599e-02	3.300000e+00	3.300000e+00	1.770270e+00	
526	1.023599e-02	3.300000e+00	3.300000e+00	1.770270e+00	
527	1.025599e-02	3.300000e+00	3.300000e+00	1.770270e+00	
528	1.027599e-02	3.300000e+00	3.300000e+00	1.770270e+00	
529	1.029599e-02	3.300000e+00	3.300000e+00	1.770270e+00	
530	1.031599e-02	3.300000e+00	3.300000e+00	1.770270e+00	
531	1.033599e-02	3.300000e+00	3.300000e+00	1.770270e+00	
532	1.035599e-02	3.300000e+00	3.300000e+00	1.770270e+00	
533	1.037599e-02	3.300000e+00	3.300000e+00	1.770270e+00	
534	1.039599e-02	3.300000e+00	3.300000e+00	1.770270e+00	
535	1.041599e-02	3.300000e+00	3.300000e+00	1.770270e+00	
536	1.043599e-02	3.300000e+00	3.300000e+00	1.770270e+00	
537	1.045599e-02	3.300000e+00	3.300000e+00	1.770270e+00	
538	1.047599e-02	3.300000e+00	3.300000e+00	1.770270e+00	
539	1.049599e-02	3.300000e+00	3.300000e+00	1.770270e+00	
540	1.051599e-02	3.300000e+00	3.300000e+00	1.770270e+00	
541	1.053599e-02	3.300000e+00	3.300000e+00	1.770270e+00	
542	1.055599e-02	3.300000e+00	3.300000e+00	1.770270e+00	
543	1.057599e-02	3.300000e+00	3.300000e+00	1.770270e+00	
544	1.059599e-02	3.300000e+00	3.300000e+00	1.770270e+00	
545	1.061599e-02	3.300000e+00	3.300000e+00	1.770270e+00	
546	1.063599e-02	3.300000e+00	3.300000e+00	1.770270e+00	
547	1.065599e-02	3.300000e+00	3.300000e+00	1.770270e+00	
548	1.067599e-02	3.300000e+00	3.300000e+00	1.770270e+00	
549	1.069599e-02	3.300000e+00	3.300000e+00	1.770270e+00	
550	1.071599e-02	3.300000e+00	3.300000e+00	1.770270e+00	
551	1.073599e-02	3.300000e+00	3.300000e+00	1.770270e+00	
552	1.075599e-02	3.300000e+00	3.300000e+00	1.770270e+00	
553	1.077599e-02	3.300000e+00	3.300000e+00	1.770270e+00	
554	1.079599e-02	3.300000e+00	3.300000e+00	1.770270e+00	
555	1.081599e-02	3.300000e+00	3.300000e+00	1.770270e+00	
556	1.083599e-02	3.300000e+00	3.300000e+00	1.770270e+00	
557	1.085599e-02	3.300000e+00	3.300000e+00	1.770270e+00	
558	1.087599e-02	3.300000e+00	3.300000e+00	1.770270e+00	
559	1.089599e-02	3.300000e+00	3.300000e+00	1.770270e+00	
560	1.091599e-02	3.300000e+00	3.300000e+00	1.770270e+00	
561	1.093599e-02	3.300000e+00	3.300000e+00	1.770270e+00	
562	1.095599e-02	3.300000e+00	3.300000e+00	1.770270e+00	
563	1.097599e-02	3.300000e+00	3.300000e+00	1.770270e+00	
564	1.099599e-02	3.300000e+00	3.300000e+00	1.770270e+00	
565	1.101599e-02	3.300000e+00	3.300000e+00	1.770270e+00	
566	1.103599e-02	3.300000e+00	3.300000e+00	1.770270e+00	
567	1.105599e-02	3.300000e+00	3.300000e+00	1.770270e+00	
568	1.107599e-02	3.300000e+00	3.300000e+00	1.770270e+00	
569	1.109599e-02	3.300000e+00	3.300000e+00	1.770270e+00	
570	1.111599e-02	3.300000e+00	3.300000e+00	1.770270e+00	
571	1.113599e-02	3.300000e+00	3.300000e+00	1.770270e+00	
572	1.115599e-02	3.300000e+00	3.300000e+00	1.770270e+00	
573	1.117599e-02	3.300000e+00	3.300000e+00	1.770270e+00	
574	1.119599e-02	3.300000e+00	3.300000e+00	1.770270e+00	
575	1.121599e-02	3.300000e+00	3.300000e+00	1.770270e+00	
576	1.123599e-02	3.300000e+00	3.300000e+00	1.770270e+00	

Index   time            v(gio)          v(gan)          v(vcore)        
--------------------------------------------------------------------------------
577	1.125599e-02	3.300000e+00	3.300000e+00	1.770270e+00	
578	1.127599e-02	3.300000e+00	3.300000e+00	1.770270e+00	
579	1.129599e-02	3.300000e+00	3.300000e+00	1.770270e+00	
580	1.131599e-02	3.300000e+00	3.300000e+00	1.770270e+00	
581	1.133599e-02	3.300000e+00	3.300000e+00	1.770270e+00	
582	1.135599e-02	3.300000e+00	3.300000e+00	1.770270e+00	
583	1.137599e-02	3.300000e+00	3.300000e+00	1.770270e+00	
584	1.139599e-02	3.300000e+00	3.300000e+00	1.770270e+00	
585	1.141599e-02	3.300000e+00	3.300000e+00	1.770270e+00	
586	1.143599e-02	3.300000e+00	3.300000e+00	1.770270e+00	
587	1.145599e-02	3.300000e+00	3.300000e+00	1.770270e+00	
588	1.147599e-02	3.300000e+00	3.300000e+00	1.770270e+00	
589	1.149599e-02	3.300000e+00	3.300000e+00	1.770270e+00	
590	1.151599e-02	3.300000e+00	3.300000e+00	1.770270e+00	
591	1.153599e-02	3.300000e+00	3.300000e+00	1.770270e+00	
592	1.155599e-02	3.300000e+00	3.300000e+00	1.770270e+00	
593	1.157599e-02	3.300000e+00	3.300000e+00	1.770270e+00	
594	1.159599e-02	3.300000e+00	3.300000e+00	1.770270e+00	
595	1.161599e-02	3.300000e+00	3.300000e+00	1.770270e+00	
596	1.163599e-02	3.300000e+00	3.300000e+00	1.770270e+00	
597	1.165599e-02	3.300000e+00	3.300000e+00	1.770270e+00	
598	1.167599e-02	3.300000e+00	3.300000e+00	1.770270e+00	
599	1.169599e-02	3.300000e+00	3.300000e+00	1.770270e+00	
600	1.171599e-02	3.300000e+00	3.300000e+00	1.770270e+00	
601	1.173599e-02	3.300000e+00	3.300000e+00	1.770270e+00	
602	1.175599e-02	3.300000e+00	3.300000e+00	1.770270e+00	
603	1.177599e-02	3.300000e+00	3.300000e+00	1.770270e+00	
604	1.179599e-02	3.300000e+00	3.300000e+00	1.770270e+00	
605	1.181599e-02	3.300000e+00	3.300000e+00	1.770270e+00	
606	1.183599e-02	3.300000e+00	3.300000e+00	1.770270e+00	
607	1.185599e-02	3.300000e+00	3.300000e+00	1.770270e+00	
608	1.187599e-02	3.300000e+00	3.300000e+00	1.770270e+00	
609	1.189599e-02	3.300000e+00	3.300000e+00	1.770270e+00	
610	1.191599e-02	3.300000e+00	3.300000e+00	1.770270e+00	
611	1.193599e-02	3.300000e+00	3.300000e+00	1.770270e+00	
612	1.195599e-02	3.300000e+00	3.300000e+00	1.770270e+00	
613	1.197599e-02	3.300000e+00	3.300000e+00	1.770270e+00	
614	1.199599e-02	3.300000e+00	3.300000e+00	1.770270e+00	
615	1.200000e-02	3.300000e+00	3.300000e+00	1.770270e+00	

                            tb001-ga144-test-bringup
                            Transient Analysis  Sat Jun 13 16:37:14  2026
--------------------------------------------------------------------------------
Index   time            v(vio)          v(van)          v(disable)      
--------------------------------------------------------------------------------
0	0.000000e+00	-3.23288e-40	-1.36336e-39	3.300000e+00	
1	2.000000e-07	-3.23228e-40	-1.36321e-39	3.300000e+00	
2	4.000000e-07	-3.23169e-40	-1.36306e-39	3.300000e+00	
3	8.000000e-07	-3.23049e-40	-1.36275e-39	3.300000e+00	
4	1.600000e-06	-3.22810e-40	-1.36215e-39	3.300000e+00	
5	3.200000e-06	-3.22332e-40	-1.36094e-39	3.300000e+00	
6	6.400000e-06	-3.21378e-40	-1.35852e-39	3.300000e+00	
7	1.280000e-05	-3.19479e-40	-1.35370e-39	3.300000e+00	
8	2.560000e-05	-3.15715e-40	-1.34411e-39	3.300000e+00	
9	4.560000e-05	-3.09922e-40	-1.32925e-39	3.300000e+00	
10	6.560000e-05	-3.04236e-40	-1.31457e-39	3.300000e+00	
11	8.560000e-05	-2.98653e-40	-1.30004e-39	3.300000e+00	
12	1.056000e-04	-2.93173e-40	-1.28568e-39	3.300000e+00	
13	1.256000e-04	-2.87794e-40	-1.27147e-39	3.300000e+00	
14	1.456000e-04	-2.82514e-40	-1.25742e-39	3.300000e+00	
15	1.656000e-04	-2.77330e-40	-1.24353e-39	3.300000e+00	
16	1.856000e-04	-2.72241e-40	-1.22978e-39	3.300000e+00	
17	2.056000e-04	-2.67246e-40	-1.21620e-39	3.300000e+00	
18	2.256000e-04	-2.62342e-40	-1.20276e-39	3.300000e+00	
19	2.456000e-04	-2.57529e-40	-1.18947e-39	3.300000e+00	
20	2.656000e-04	-2.52803e-40	-1.17632e-39	3.300000e+00	
21	2.856000e-04	-2.48165e-40	-1.16333e-39	3.300000e+00	
22	3.056000e-04	-2.43611e-40	-1.15047e-39	3.300000e+00	
23	3.256000e-04	-2.39141e-40	-1.13776e-39	3.300000e+00	
24	3.456000e-04	-2.34753e-40	-1.12519e-39	3.300000e+00	
25	3.656000e-04	-2.30446e-40	-1.11275e-39	3.300000e+00	
26	3.856000e-04	-2.26218e-40	-1.10046e-39	3.300000e+00	
27	4.056000e-04	-2.22067e-40	-1.08830e-39	3.300000e+00	
28	4.256000e-04	-2.17992e-40	-1.07627e-39	3.300000e+00	
29	4.456000e-04	-2.13992e-40	-1.06438e-39	3.300000e+00	
30	4.656000e-04	-2.10066e-40	-1.05262e-39	3.300000e+00	
31	4.856000e-04	-2.06212e-40	-1.04099e-39	3.300000e+00	
32	5.056000e-04	-2.02428e-40	-1.02949e-39	3.300000e+00	
33	5.256000e-04	-1.98714e-40	-1.01811e-39	3.300000e+00	
34	5.456000e-04	-1.95067e-40	-1.00686e-39	3.300000e+00	
35	5.656000e-04	-1.91488e-40	-9.95735e-40	3.300000e+00	
36	5.856000e-04	-1.87975e-40	-9.84733e-40	3.300000e+00	
37	6.056000e-04	-1.84526e-40	-9.73852e-40	3.300000e+00	
38	6.256000e-04	-1.81140e-40	-9.63091e-40	3.300000e+00	
39	6.456000e-04	-1.77816e-40	-9.52449e-40	3.300000e+00	
40	6.656000e-04	-1.74553e-40	-9.41925e-40	3.300000e+00	
41	6.856000e-04	-1.71351e-40	-9.31517e-40	3.300000e+00	
42	7.056000e-04	-1.68207e-40	-9.21224e-40	3.300000e+00	
43	7.256000e-04	-1.65120e-40	-9.11044e-40	3.300000e+00	
44	7.456000e-04	-1.62091e-40	-9.00978e-40	3.300000e+00	
45	7.656000e-04	-1.59116e-40	-8.91022e-40	3.300000e+00	
46	7.856000e-04	-1.56197e-40	-8.81176e-40	3.300000e+00	
47	8.056000e-04	-1.53331e-40	-8.71440e-40	3.300000e+00	
48	8.256000e-04	-1.50517e-40	-8.61810e-40	3.300000e+00	
49	8.456000e-04	-1.47756e-40	-8.52288e-40	3.300000e+00	
50	8.656000e-04	-1.45045e-40	-8.42870e-40	3.300000e+00	
51	8.856000e-04	-1.42383e-40	-8.33557e-40	3.300000e+00	
52	9.056000e-04	-1.39771e-40	-8.24346e-40	3.300000e+00	
53	9.256000e-04	-1.37206e-40	-8.15237e-40	3.300000e+00	
54	9.456000e-04	-1.34688e-40	-8.06229e-40	3.300000e+00	

Index   time            v(vio)          v(van)          v(disable)      
--------------------------------------------------------------------------------
55	9.656000e-04	-1.32217e-40	-7.97321e-40	3.300000e+00	
56	9.856000e-04	-1.29791e-40	-7.88510e-40	3.300000e+00	
57	1.000000e-03	-1.28072e-40	-7.82227e-40	3.300000e+00	
58	1.002000e-03	-1.27835e-40	-7.81359e-40	2.970000e+00	
59	1.006000e-03	-1.27363e-40	-7.79625e-40	2.310000e+00	
60	1.014000e-03	-1.26423e-40	-7.76168e-40	9.900000e-01	
61	1.020000e-03	7.720439e-01	7.022962e-01	0.000000e+00	
62	1.021411e-03	9.935434e-01	9.172509e-01	0.000000e+00	
63	1.024233e-03	1.304334e+00	1.231604e+00	0.000000e+00	
64	1.029285e-03	1.543668e+00	1.497728e+00	0.000000e+00	
65	1.035274e-03	1.673349e+00	1.645573e+00	0.000000e+00	
66	1.042868e-03	1.737940e+00	1.724886e+00	0.000000e+00	
67	1.056103e-03	1.775621e+00	1.773892e+00	0.000000e+00	
68	1.075985e-03	1.783656e+00	1.786033e+00	0.000000e+00	
69	1.095985e-03	1.784575e+00	1.786931e+00	0.000000e+00	
70	1.115985e-03	1.784357e+00	1.786816e+00	0.000000e+00	
71	1.135985e-03	1.784594e+00	1.786999e+00	0.000000e+00	
72	1.155985e-03	1.784411e+00	1.786860e+00	0.000000e+00	
73	1.175985e-03	1.784554e+00	1.786968e+00	0.000000e+00	
74	1.195985e-03	1.784437e+00	1.786878e+00	0.000000e+00	
75	1.215985e-03	1.784530e+00	1.786949e+00	0.000000e+00	
76	1.235985e-03	1.784452e+00	1.786889e+00	0.000000e+00	
77	1.255985e-03	1.784515e+00	1.786938e+00	0.000000e+00	
78	1.275985e-03	1.784462e+00	1.786896e+00	0.000000e+00	
79	1.295985e-03	1.784507e+00	1.786931e+00	0.000000e+00	
80	1.315985e-03	1.784467e+00	1.786901e+00	0.000000e+00	
81	1.335985e-03	1.784501e+00	1.786927e+00	0.000000e+00	
[...]
282	5.355985e-03	1.784484e+00	1.786913e+00	0.000000e+00	
283	5.375985e-03	1.784484e+00	1.786913e+00	0.000000e+00	
284	5.395985e-03	1.784484e+00	1.786913e+00	0.000000e+00	
285	5.415985e-03	1.784484e+00	1.786913e+00	0.000000e+00	
286	5.435985e-03	1.784484e+00	1.786913e+00	0.000000e+00	

Index   time            v(vio)          v(van)          v(disable)      
--------------------------------------------------------------------------------
287	5.455985e-03	1.784484e+00	1.786913e+00	0.000000e+00	
288	5.475985e-03	1.784484e+00	1.786913e+00	0.000000e+00	
289	5.495985e-03	1.784484e+00	1.786913e+00	0.000000e+00	
290	5.515985e-03	1.784484e+00	1.786913e+00	0.000000e+00	
291	5.535985e-03	1.784484e+00	1.786913e+00	0.000000e+00	
292	5.555985e-03	1.784484e+00	1.786913e+00	0.000000e+00	
293	5.575985e-03	1.784484e+00	1.786913e+00	0.000000e+00	
294	5.595985e-03	1.784484e+00	1.786913e+00	0.000000e+00	
295	5.615985e-03	1.784484e+00	1.786913e+00	0.000000e+00	
296	5.635985e-03	1.784484e+00	1.786913e+00	0.000000e+00	
297	5.655985e-03	1.784484e+00	1.786913e+00	0.000000e+00	
298	5.675985e-03	1.784484e+00	1.786913e+00	0.000000e+00	
299	5.695985e-03	1.784484e+00	1.786913e+00	0.000000e+00	
300	5.715985e-03	1.784484e+00	1.786913e+00	0.000000e+00	
301	5.735985e-03	1.784484e+00	1.786913e+00	0.000000e+00	
302	5.755985e-03	1.784484e+00	1.786913e+00	0.000000e+00	
303	5.775985e-03	1.784484e+00	1.786913e+00	0.000000e+00	
304	5.795985e-03	1.784484e+00	1.786913e+00	0.000000e+00	
305	5.815985e-03	1.784484e+00	1.786913e+00	0.000000e+00	
306	5.835985e-03	1.784484e+00	1.786913e+00	0.000000e+00	
307	5.855985e-03	1.784484e+00	1.786913e+00	0.000000e+00	
308	5.875985e-03	1.784484e+00	1.786913e+00	0.000000e+00	
309	5.895985e-03	1.784484e+00	1.786913e+00	0.000000e+00	
310	5.915985e-03	1.784484e+00	1.786913e+00	0.000000e+00	
311	5.935985e-03	1.784484e+00	1.786913e+00	0.000000e+00	
312	5.955985e-03	1.784484e+00	1.786913e+00	0.000000e+00	
313	5.975985e-03	1.784484e+00	1.786913e+00	0.000000e+00	
314	5.995985e-03	1.784484e+00	1.786913e+00	0.000000e+00	
315	6.015985e-03	1.784484e+00	1.786913e+00	0.000000e+00	
316	6.035985e-03	1.784484e+00	1.786913e+00	0.000000e+00	
317	6.055985e-03	1.784484e+00	1.786913e+00	0.000000e+00	
318	6.075985e-03	1.784484e+00	1.786913e+00	0.000000e+00	
319	6.095985e-03	1.784484e+00	1.786913e+00	0.000000e+00	
320	6.115985e-03	1.784484e+00	1.786913e+00	0.000000e+00	
321	6.135985e-03	1.784484e+00	1.786913e+00	0.000000e+00	
322	6.155985e-03	1.784484e+00	1.786913e+00	0.000000e+00	
323	6.175985e-03	1.784484e+00	1.786913e+00	0.000000e+00	
324	6.195985e-03	1.784484e+00	1.786913e+00	0.000000e+00	
325	6.215985e-03	1.784484e+00	1.786913e+00	0.000000e+00	
326	6.235985e-03	1.784484e+00	1.786913e+00	0.000000e+00	
327	6.255985e-03	1.784484e+00	1.786913e+00	0.000000e+00	
328	6.275985e-03	1.784484e+00	1.786913e+00	0.000000e+00	
329	6.295985e-03	1.784484e+00	1.786913e+00	0.000000e+00	
330	6.315985e-03	1.784484e+00	1.786913e+00	0.000000e+00	
331	6.335985e-03	1.784484e+00	1.786913e+00	0.000000e+00	
332	6.355985e-03	1.784484e+00	1.786913e+00	0.000000e+00	
333	6.375985e-03	1.784484e+00	1.786913e+00	0.000000e+00	
334	6.395985e-03	1.784484e+00	1.786913e+00	0.000000e+00	
335	6.415985e-03	1.784484e+00	1.786913e+00	0.000000e+00	
336	6.435985e-03	1.784484e+00	1.786913e+00	0.000000e+00	
337	6.455985e-03	1.784484e+00	1.786913e+00	0.000000e+00	
338	6.475985e-03	1.784484e+00	1.786913e+00	0.000000e+00	
339	6.495985e-03	1.784484e+00	1.786913e+00	0.000000e+00	
340	6.515985e-03	1.784484e+00	1.786913e+00	0.000000e+00	
341	6.535985e-03	1.784484e+00	1.786913e+00	0.000000e+00	
342	6.555985e-03	1.784484e+00	1.786913e+00	0.000000e+00	
343	6.575985e-03	1.784484e+00	1.786913e+00	0.000000e+00	
344	6.595985e-03	1.784484e+00	1.786913e+00	0.000000e+00	

Index   time            v(vio)          v(van)          v(disable)      
--------------------------------------------------------------------------------
345	6.615985e-03	1.784484e+00	1.786913e+00	0.000000e+00	
346	6.635985e-03	1.784484e+00	1.786913e+00	0.000000e+00	
347	6.655985e-03	1.784484e+00	1.786913e+00	0.000000e+00	
348	6.675985e-03	1.784484e+00	1.786913e+00	0.000000e+00	
349	6.695985e-03	1.784484e+00	1.786913e+00	0.000000e+00	
350	6.715985e-03	1.784484e+00	1.786913e+00	0.000000e+00	
351	6.735985e-03	1.784484e+00	1.786913e+00	0.000000e+00	
352	6.755985e-03	1.784484e+00	1.786913e+00	0.000000e+00	
353	6.775985e-03	1.784484e+00	1.786913e+00	0.000000e+00	
354	6.795985e-03	1.784484e+00	1.786913e+00	0.000000e+00	
355	6.815985e-03	1.784484e+00	1.786913e+00	0.000000e+00	
356	6.835985e-03	1.784484e+00	1.786913e+00	0.000000e+00	
357	6.855985e-03	1.784484e+00	1.786913e+00	0.000000e+00	
358	6.875985e-03	1.784484e+00	1.786913e+00	0.000000e+00	
359	6.895985e-03	1.784484e+00	1.786913e+00	0.000000e+00	
360	6.915985e-03	1.784484e+00	1.786913e+00	0.000000e+00	
361	6.935985e-03	1.784484e+00	1.786913e+00	0.000000e+00	
362	6.955985e-03	1.784484e+00	1.786913e+00	0.000000e+00	
363	6.975985e-03	1.784484e+00	1.786913e+00	0.000000e+00	
364	6.995985e-03	1.784484e+00	1.786913e+00	0.000000e+00	
365	7.015985e-03	1.784484e+00	1.786913e+00	0.000000e+00	
366	7.035985e-03	1.784484e+00	1.786913e+00	0.000000e+00	
367	7.055985e-03	1.784484e+00	1.786913e+00	0.000000e+00	
368	7.075985e-03	1.784484e+00	1.786913e+00	0.000000e+00	
369	7.095985e-03	1.784484e+00	1.786913e+00	0.000000e+00	
370	7.115985e-03	1.784484e+00	1.786913e+00	0.000000e+00	
371	7.135985e-03	1.784484e+00	1.786913e+00	0.000000e+00	
372	7.155985e-03	1.784484e+00	1.786913e+00	0.000000e+00	
373	7.175985e-03	1.784484e+00	1.786913e+00	0.000000e+00	
374	7.195985e-03	1.784484e+00	1.786913e+00	0.000000e+00	
375	7.215985e-03	1.784484e+00	1.786913e+00	0.000000e+00	
376	7.235985e-03	1.784484e+00	1.786913e+00	0.000000e+00	
377	7.255985e-03	1.784484e+00	1.786913e+00	0.000000e+00	
378	7.275985e-03	1.784484e+00	1.786913e+00	0.000000e+00	
379	7.295985e-03	1.784484e+00	1.786913e+00	0.000000e+00	
380	7.315985e-03	1.784484e+00	1.786913e+00	0.000000e+00	
381	7.335985e-03	1.784484e+00	1.786913e+00	0.000000e+00	
382	7.355985e-03	1.784484e+00	1.786913e+00	0.000000e+00	
383	7.375985e-03	1.784484e+00	1.786913e+00	0.000000e+00	
384	7.395985e-03	1.784484e+00	1.786913e+00	0.000000e+00	
385	7.415985e-03	1.784484e+00	1.786913e+00	0.000000e+00	
386	7.435985e-03	1.784484e+00	1.786913e+00	0.000000e+00	
387	7.455985e-03	1.784484e+00	1.786913e+00	0.000000e+00	
388	7.475985e-03	1.784484e+00	1.786913e+00	0.000000e+00	
389	7.495985e-03	1.784484e+00	1.786913e+00	0.000000e+00	
390	7.515985e-03	1.784484e+00	1.786913e+00	0.000000e+00	
391	7.535985e-03	1.784484e+00	1.786913e+00	0.000000e+00	
392	7.555985e-03	1.784484e+00	1.786913e+00	0.000000e+00	
393	7.575985e-03	1.784484e+00	1.786913e+00	0.000000e+00	
394	7.595985e-03	1.784484e+00	1.786913e+00	0.000000e+00	
395	7.615985e-03	1.784484e+00	1.786913e+00	0.000000e+00	
396	7.635985e-03	1.784484e+00	1.786913e+00	0.000000e+00	
397	7.655985e-03	1.784484e+00	1.786913e+00	0.000000e+00	
398	7.675985e-03	1.784484e+00	1.786913e+00	0.000000e+00	
399	7.695985e-03	1.784484e+00	1.786913e+00	0.000000e+00	
400	7.715985e-03	1.784484e+00	1.786913e+00	0.000000e+00	
401	7.735985e-03	1.784484e+00	1.786913e+00	0.000000e+00	
402	7.755985e-03	1.784484e+00	1.786913e+00	0.000000e+00	

Index   time            v(vio)          v(van)          v(disable)      
--------------------------------------------------------------------------------
403	7.775985e-03	1.784484e+00	1.786913e+00	0.000000e+00	
404	7.795985e-03	1.784484e+00	1.786913e+00	0.000000e+00	
405	7.815985e-03	1.784484e+00	1.786913e+00	0.000000e+00	
406	7.835985e-03	1.784484e+00	1.786913e+00	0.000000e+00	
407	7.855985e-03	1.784484e+00	1.786913e+00	0.000000e+00	
408	7.875985e-03	1.784484e+00	1.786913e+00	0.000000e+00	
409	7.895985e-03	1.784484e+00	1.786913e+00	0.000000e+00	
410	7.915985e-03	1.784484e+00	1.786913e+00	0.000000e+00	
411	7.935985e-03	1.784484e+00	1.786913e+00	0.000000e+00	
412	7.955985e-03	1.784484e+00	1.786913e+00	0.000000e+00	
413	7.975985e-03	1.784484e+00	1.786913e+00	0.000000e+00	
414	7.995985e-03	1.784484e+00	1.786913e+00	0.000000e+00	
415	8.015985e-03	1.784484e+00	1.786913e+00	0.000000e+00	
416	8.035985e-03	1.784484e+00	1.786913e+00	0.000000e+00	
417	8.055985e-03	1.784484e+00	1.786913e+00	0.000000e+00	
418	8.075985e-03	1.784484e+00	1.786913e+00	0.000000e+00	
419	8.095985e-03	1.784484e+00	1.786913e+00	0.000000e+00	
420	8.115985e-03	1.784484e+00	1.786913e+00	0.000000e+00	
421	8.135985e-03	1.784484e+00	1.786913e+00	0.000000e+00	
422	8.155985e-03	1.784484e+00	1.786913e+00	0.000000e+00	
423	8.175985e-03	1.784484e+00	1.786913e+00	0.000000e+00	
424	8.195985e-03	1.784484e+00	1.786913e+00	0.000000e+00	
425	8.215985e-03	1.784484e+00	1.786913e+00	0.000000e+00	
426	8.235985e-03	1.784484e+00	1.786913e+00	0.000000e+00	
427	8.255985e-03	1.784484e+00	1.786913e+00	0.000000e+00	
428	8.275985e-03	1.784484e+00	1.786913e+00	0.000000e+00	
429	8.295985e-03	1.784484e+00	1.786913e+00	0.000000e+00	
430	8.315985e-03	1.784484e+00	1.786913e+00	0.000000e+00	
431	8.335985e-03	1.784484e+00	1.786913e+00	0.000000e+00	
432	8.355985e-03	1.784484e+00	1.786913e+00	0.000000e+00	
433	8.375985e-03	1.784484e+00	1.786913e+00	0.000000e+00	
434	8.395985e-03	1.784484e+00	1.786913e+00	0.000000e+00	
435	8.415985e-03	1.784484e+00	1.786913e+00	0.000000e+00	
436	8.435985e-03	1.784484e+00	1.786913e+00	0.000000e+00	
437	8.455985e-03	1.784484e+00	1.786913e+00	0.000000e+00	
438	8.475985e-03	1.784484e+00	1.786913e+00	0.000000e+00	
439	8.495985e-03	1.784484e+00	1.786913e+00	0.000000e+00	
440	8.515985e-03	1.784484e+00	1.786913e+00	0.000000e+00	
441	8.535985e-03	1.784484e+00	1.786913e+00	0.000000e+00	
442	8.555985e-03	1.784484e+00	1.786913e+00	0.000000e+00	
443	8.575985e-03	1.784484e+00	1.786913e+00	0.000000e+00	
444	8.595985e-03	1.784484e+00	1.786913e+00	0.000000e+00	
445	8.615985e-03	1.784484e+00	1.786913e+00	0.000000e+00	
446	8.635985e-03	1.784484e+00	1.786913e+00	0.000000e+00	
447	8.655985e-03	1.784484e+00	1.786913e+00	0.000000e+00	
448	8.675985e-03	1.784484e+00	1.786913e+00	0.000000e+00	
449	8.695985e-03	1.784484e+00	1.786913e+00	0.000000e+00	
450	8.715985e-03	1.784484e+00	1.786913e+00	0.000000e+00	
451	8.735985e-03	1.784484e+00	1.786913e+00	0.000000e+00	
452	8.755985e-03	1.784484e+00	1.786913e+00	0.000000e+00	
453	8.775985e-03	1.784484e+00	1.786913e+00	0.000000e+00	
454	8.795985e-03	1.784484e+00	1.786913e+00	0.000000e+00	
455	8.815985e-03	1.784484e+00	1.786913e+00	0.000000e+00	
456	8.835985e-03	1.784484e+00	1.786913e+00	0.000000e+00	
457	8.855985e-03	1.784484e+00	1.786913e+00	0.000000e+00	
458	8.875985e-03	1.784484e+00	1.786913e+00	0.000000e+00	
459	8.895985e-03	1.784484e+00	1.786913e+00	0.000000e+00	
460	8.915985e-03	1.784484e+00	1.786913e+00	0.000000e+00	

Index   time            v(vio)          v(van)          v(disable)      
--------------------------------------------------------------------------------
461	8.935985e-03	1.784484e+00	1.786913e+00	0.000000e+00	
462	8.955985e-03	1.784484e+00	1.786913e+00	0.000000e+00	
463	8.975985e-03	1.784484e+00	1.786913e+00	0.000000e+00	
464	8.995985e-03	1.784484e+00	1.786913e+00	0.000000e+00	
465	9.015985e-03	1.784484e+00	1.786913e+00	0.000000e+00	
466	9.035985e-03	1.784484e+00	1.786913e+00	0.000000e+00	
467	9.055985e-03	1.784484e+00	1.786913e+00	0.000000e+00	
468	9.075985e-03	1.784484e+00	1.786913e+00	0.000000e+00	
469	9.095985e-03	1.784484e+00	1.786913e+00	0.000000e+00	
470	9.115985e-03	1.784484e+00	1.786913e+00	0.000000e+00	
471	9.135985e-03	1.784484e+00	1.786913e+00	0.000000e+00	
472	9.155985e-03	1.784484e+00	1.786913e+00	0.000000e+00	
473	9.175985e-03	1.784484e+00	1.786913e+00	0.000000e+00	
474	9.195985e-03	1.784484e+00	1.786913e+00	0.000000e+00	
475	9.215985e-03	1.784484e+00	1.786913e+00	0.000000e+00	
476	9.235985e-03	1.784484e+00	1.786913e+00	0.000000e+00	
477	9.255985e-03	1.784484e+00	1.786913e+00	0.000000e+00	
478	9.275985e-03	1.784484e+00	1.786913e+00	0.000000e+00	
479	9.295985e-03	1.784484e+00	1.786913e+00	0.000000e+00	
480	9.315985e-03	1.784484e+00	1.786913e+00	0.000000e+00	
481	9.335985e-03	1.784484e+00	1.786913e+00	0.000000e+00	
482	9.355985e-03	1.784484e+00	1.786913e+00	0.000000e+00	
483	9.375985e-03	1.784484e+00	1.786913e+00	0.000000e+00	
484	9.395985e-03	1.784484e+00	1.786913e+00	0.000000e+00	
485	9.415985e-03	1.784484e+00	1.786913e+00	0.000000e+00	
486	9.435985e-03	1.784484e+00	1.786913e+00	0.000000e+00	
487	9.455985e-03	1.784484e+00	1.786913e+00	0.000000e+00	
488	9.475985e-03	1.784484e+00	1.786913e+00	0.000000e+00	
489	9.495985e-03	1.784484e+00	1.786913e+00	0.000000e+00	
490	9.515985e-03	1.784484e+00	1.786913e+00	0.000000e+00	
491	9.535985e-03	1.784484e+00	1.786913e+00	0.000000e+00	
492	9.555985e-03	1.784484e+00	1.786913e+00	0.000000e+00	
493	9.575985e-03	1.784484e+00	1.786913e+00	0.000000e+00	
494	9.595985e-03	1.784484e+00	1.786913e+00	0.000000e+00	
495	9.615985e-03	1.784484e+00	1.786913e+00	0.000000e+00	
496	9.635985e-03	1.784484e+00	1.786913e+00	0.000000e+00	
497	9.655985e-03	1.784484e+00	1.786913e+00	0.000000e+00	
498	9.675985e-03	1.784484e+00	1.786913e+00	0.000000e+00	
499	9.695985e-03	1.784484e+00	1.786913e+00	0.000000e+00	
500	9.715985e-03	1.784484e+00	1.786913e+00	0.000000e+00	
501	9.735985e-03	1.784484e+00	1.786913e+00	0.000000e+00	
502	9.755985e-03	1.784484e+00	1.786913e+00	0.000000e+00	
503	9.775985e-03	1.784484e+00	1.786913e+00	0.000000e+00	
504	9.795985e-03	1.784484e+00	1.786913e+00	0.000000e+00	
505	9.815985e-03	1.784484e+00	1.786913e+00	0.000000e+00	
506	9.835985e-03	1.784484e+00	1.786913e+00	0.000000e+00	
507	9.855985e-03	1.784484e+00	1.786913e+00	0.000000e+00	
508	9.875985e-03	1.784484e+00	1.786913e+00	0.000000e+00	
509	9.895985e-03	1.784484e+00	1.786913e+00	0.000000e+00	
510	9.915985e-03	1.784484e+00	1.786913e+00	0.000000e+00	
511	9.935985e-03	1.784484e+00	1.786913e+00	0.000000e+00	
512	9.955985e-03	1.784484e+00	1.786913e+00	0.000000e+00	
513	9.975985e-03	1.784484e+00	1.786913e+00	0.000000e+00	
514	9.995985e-03	1.784484e+00	1.786913e+00	0.000000e+00	
515	1.001599e-02	1.784484e+00	1.786913e+00	0.000000e+00	
516	1.003599e-02	1.784484e+00	1.786913e+00	0.000000e+00	
517	1.005599e-02	1.784484e+00	1.786913e+00	0.000000e+00	
518	1.007599e-02	1.784484e+00	1.786913e+00	0.000000e+00	

Index   time            v(vio)          v(van)          v(disable)      
--------------------------------------------------------------------------------
519	1.009599e-02	1.784484e+00	1.786913e+00	0.000000e+00	
520	1.011599e-02	1.784484e+00	1.786913e+00	0.000000e+00	
521	1.013599e-02	1.784484e+00	1.786913e+00	0.000000e+00	
522	1.015599e-02	1.784484e+00	1.786913e+00	0.000000e+00	
523	1.017599e-02	1.784484e+00	1.786913e+00	0.000000e+00	
524	1.019599e-02	1.784484e+00	1.786913e+00	0.000000e+00	
525	1.021599e-02	1.784484e+00	1.786913e+00	0.000000e+00	
526	1.023599e-02	1.784484e+00	1.786913e+00	0.000000e+00	
527	1.025599e-02	1.784484e+00	1.786913e+00	0.000000e+00	
528	1.027599e-02	1.784484e+00	1.786913e+00	0.000000e+00	
529	1.029599e-02	1.784484e+00	1.786913e+00	0.000000e+00	
530	1.031599e-02	1.784484e+00	1.786913e+00	0.000000e+00	
531	1.033599e-02	1.784484e+00	1.786913e+00	0.000000e+00	
532	1.035599e-02	1.784484e+00	1.786913e+00	0.000000e+00	
533	1.037599e-02	1.784484e+00	1.786913e+00	0.000000e+00	
534	1.039599e-02	1.784484e+00	1.786913e+00	0.000000e+00	
535	1.041599e-02	1.784484e+00	1.786913e+00	0.000000e+00	
536	1.043599e-02	1.784484e+00	1.786913e+00	0.000000e+00	
537	1.045599e-02	1.784484e+00	1.786913e+00	0.000000e+00	
538	1.047599e-02	1.784484e+00	1.786913e+00	0.000000e+00	
539	1.049599e-02	1.784484e+00	1.786913e+00	0.000000e+00	
540	1.051599e-02	1.784484e+00	1.786913e+00	0.000000e+00	
541	1.053599e-02	1.784484e+00	1.786913e+00	0.000000e+00	
542	1.055599e-02	1.784484e+00	1.786913e+00	0.000000e+00	
543	1.057599e-02	1.784484e+00	1.786913e+00	0.000000e+00	
544	1.059599e-02	1.784484e+00	1.786913e+00	0.000000e+00	
545	1.061599e-02	1.784484e+00	1.786913e+00	0.000000e+00	
546	1.063599e-02	1.784484e+00	1.786913e+00	0.000000e+00	
547	1.065599e-02	1.784484e+00	1.786913e+00	0.000000e+00	
548	1.067599e-02	1.784484e+00	1.786913e+00	0.000000e+00	
549	1.069599e-02	1.784484e+00	1.786913e+00	0.000000e+00	
550	1.071599e-02	1.784484e+00	1.786913e+00	0.000000e+00	
551	1.073599e-02	1.784484e+00	1.786913e+00	0.000000e+00	
552	1.075599e-02	1.784484e+00	1.786913e+00	0.000000e+00	
553	1.077599e-02	1.784484e+00	1.786913e+00	0.000000e+00	
554	1.079599e-02	1.784484e+00	1.786913e+00	0.000000e+00	
555	1.081599e-02	1.784484e+00	1.786913e+00	0.000000e+00	
556	1.083599e-02	1.784484e+00	1.786913e+00	0.000000e+00	
557	1.085599e-02	1.784484e+00	1.786913e+00	0.000000e+00	
558	1.087599e-02	1.784484e+00	1.786913e+00	0.000000e+00	
559	1.089599e-02	1.784484e+00	1.786913e+00	0.000000e+00	
560	1.091599e-02	1.784484e+00	1.786913e+00	0.000000e+00	
561	1.093599e-02	1.784484e+00	1.786913e+00	0.000000e+00	
562	1.095599e-02	1.784484e+00	1.786913e+00	0.000000e+00	
563	1.097599e-02	1.784484e+00	1.786913e+00	0.000000e+00	
564	1.099599e-02	1.784484e+00	1.786913e+00	0.000000e+00	
565	1.101599e-02	1.784484e+00	1.786913e+00	0.000000e+00	
566	1.103599e-02	1.784484e+00	1.786913e+00	0.000000e+00	
567	1.105599e-02	1.784484e+00	1.786913e+00	0.000000e+00	
568	1.107599e-02	1.784484e+00	1.786913e+00	0.000000e+00	
569	1.109599e-02	1.784484e+00	1.786913e+00	0.000000e+00	
570	1.111599e-02	1.784484e+00	1.786913e+00	0.000000e+00	
571	1.113599e-02	1.784484e+00	1.786913e+00	0.000000e+00	
572	1.115599e-02	1.784484e+00	1.786913e+00	0.000000e+00	
573	1.117599e-02	1.784484e+00	1.786913e+00	0.000000e+00	
574	1.119599e-02	1.784484e+00	1.786913e+00	0.000000e+00	
575	1.121599e-02	1.784484e+00	1.786913e+00	0.000000e+00	
576	1.123599e-02	1.784484e+00	1.786913e+00	0.000000e+00	

Index   time            v(vio)          v(van)          v(disable)      
--------------------------------------------------------------------------------
577	1.125599e-02	1.784484e+00	1.786913e+00	0.000000e+00	
578	1.127599e-02	1.784484e+00	1.786913e+00	0.000000e+00	
579	1.129599e-02	1.784484e+00	1.786913e+00	0.000000e+00	
580	1.131599e-02	1.784484e+00	1.786913e+00	0.000000e+00	
581	1.133599e-02	1.784484e+00	1.786913e+00	0.000000e+00	
582	1.135599e-02	1.784484e+00	1.786913e+00	0.000000e+00	
583	1.137599e-02	1.784484e+00	1.786913e+00	0.000000e+00	
584	1.139599e-02	1.784484e+00	1.786913e+00	0.000000e+00	
585	1.141599e-02	1.784484e+00	1.786913e+00	0.000000e+00	
586	1.143599e-02	1.784484e+00	1.786913e+00	0.000000e+00	
587	1.145599e-02	1.784484e+00	1.786913e+00	0.000000e+00	
588	1.147599e-02	1.784484e+00	1.786913e+00	0.000000e+00	
589	1.149599e-02	1.784484e+00	1.786913e+00	0.000000e+00	
590	1.151599e-02	1.784484e+00	1.786913e+00	0.000000e+00	
591	1.153599e-02	1.784484e+00	1.786913e+00	0.000000e+00	
592	1.155599e-02	1.784484e+00	1.786913e+00	0.000000e+00	
593	1.157599e-02	1.784484e+00	1.786913e+00	0.000000e+00	
594	1.159599e-02	1.784484e+00	1.786913e+00	0.000000e+00	
595	1.161599e-02	1.784484e+00	1.786913e+00	0.000000e+00	
596	1.163599e-02	1.784484e+00	1.786913e+00	0.000000e+00	
597	1.165599e-02	1.784484e+00	1.786913e+00	0.000000e+00	
598	1.167599e-02	1.784484e+00	1.786913e+00	0.000000e+00	
599	1.169599e-02	1.784484e+00	1.786913e+00	0.000000e+00	
600	1.171599e-02	1.784484e+00	1.786913e+00	0.000000e+00	
601	1.173599e-02	1.784484e+00	1.786913e+00	0.000000e+00	
602	1.175599e-02	1.784484e+00	1.786913e+00	0.000000e+00	
603	1.177599e-02	1.784484e+00	1.786913e+00	0.000000e+00	
604	1.179599e-02	1.784484e+00	1.786913e+00	0.000000e+00	
605	1.181599e-02	1.784484e+00	1.786913e+00	0.000000e+00	
606	1.183599e-02	1.784484e+00	1.786913e+00	0.000000e+00	
607	1.185599e-02	1.784484e+00	1.786913e+00	0.000000e+00	
608	1.187599e-02	1.784484e+00	1.786913e+00	0.000000e+00	
609	1.189599e-02	1.784484e+00	1.786913e+00	0.000000e+00	
610	1.191599e-02	1.784484e+00	1.786913e+00	0.000000e+00	
611	1.193599e-02	1.784484e+00	1.786913e+00	0.000000e+00	
612	1.195599e-02	1.784484e+00	1.786913e+00	0.000000e+00	
613	1.197599e-02	1.784484e+00	1.786913e+00	0.000000e+00	
614	1.199599e-02	1.784484e+00	1.786913e+00	0.000000e+00	
615	1.200000e-02	1.784484e+00	1.786913e+00	0.000000e+00	
ngspice-44.2 done
