
Note: No compatibility mode selected!


Circuit: tb001-ga144-test-bringup

Doing analysis at TEMP = 27.000000 and TNOM = 27.000000

Using SPARSE 1.3 as Direct Linear Solver

Initial Transient Solution
--------------------------

Node                                   Voltage
----                                   -------
vin_src                                    1.8
vdrv                                       3.3
disable                                    3.3
vin_main                               1.79888
vmaster                                1.79799
vu2                                    1.79754
vu1                                    1.79785
vu3                                    1.79792
reset_hold                             1.52372
gcore                              0.000578734
vcore                             -3.29893e-42
gio                                0.000578734
vio                               -3.23436e-40
gan                                0.000578734
van                               -1.36398e-39
vdis#branch                                  0
vgatedrv#branch                   -0.000210601
vmain1p8#branch                     -0.0223225


No. of Data Rows : 616
                            tb001-ga144-test-bringup
                            Transient Analysis  Sat Jun 13 16:45:40  2026
--------------------------------------------------------------------------------
Index   time            v(vin_main)     v(vmaster)      v(vu2)          
--------------------------------------------------------------------------------
0	0.000000e+00	1.798884e+00	1.797991e+00	1.797542e+00	
1	2.000000e-07	1.798884e+00	1.797991e+00	1.797542e+00	
2	4.000000e-07	1.798884e+00	1.797991e+00	1.797542e+00	
3	8.000000e-07	1.798884e+00	1.797991e+00	1.797542e+00	
4	1.600000e-06	1.798884e+00	1.797991e+00	1.797542e+00	
5	3.200000e-06	1.798884e+00	1.797991e+00	1.797542e+00	
6	6.400000e-06	1.798884e+00	1.797991e+00	1.797542e+00	
7	1.280000e-05	1.798884e+00	1.797991e+00	1.797542e+00	
8	2.560000e-05	1.798884e+00	1.797991e+00	1.797542e+00	
9	4.560000e-05	1.798884e+00	1.797991e+00	1.797542e+00	
10	6.560000e-05	1.798884e+00	1.797991e+00	1.797542e+00	
11	8.560000e-05	1.798884e+00	1.797991e+00	1.797542e+00	
12	1.056000e-04	1.798884e+00	1.797991e+00	1.797542e+00	
13	1.256000e-04	1.798884e+00	1.797991e+00	1.797542e+00	
14	1.456000e-04	1.798884e+00	1.797991e+00	1.797542e+00	
15	1.656000e-04	1.798884e+00	1.797991e+00	1.797542e+00	
16	1.856000e-04	1.798884e+00	1.797991e+00	1.797542e+00	
17	2.056000e-04	1.798884e+00	1.797991e+00	1.797542e+00	
18	2.256000e-04	1.798884e+00	1.797991e+00	1.797542e+00	
19	2.456000e-04	1.798884e+00	1.797991e+00	1.797542e+00	
20	2.656000e-04	1.798884e+00	1.797991e+00	1.797542e+00	
21	2.856000e-04	1.798884e+00	1.797991e+00	1.797542e+00	
22	3.056000e-04	1.798884e+00	1.797991e+00	1.797542e+00	
23	3.256000e-04	1.798884e+00	1.797991e+00	1.797542e+00	
24	3.456000e-04	1.798884e+00	1.797991e+00	1.797542e+00	
25	3.656000e-04	1.798884e+00	1.797991e+00	1.797542e+00	
26	3.856000e-04	1.798884e+00	1.797991e+00	1.797542e+00	
27	4.056000e-04	1.798884e+00	1.797991e+00	1.797542e+00	
28	4.256000e-04	1.798884e+00	1.797991e+00	1.797542e+00	
29	4.456000e-04	1.798884e+00	1.797991e+00	1.797542e+00	
30	4.656000e-04	1.798884e+00	1.797991e+00	1.797542e+00	
31	4.856000e-04	1.798884e+00	1.797991e+00	1.797542e+00	
32	5.056000e-04	1.798884e+00	1.797991e+00	1.797542e+00	
33	5.256000e-04	1.798884e+00	1.797991e+00	1.797542e+00	
34	5.456000e-04	1.798884e+00	1.797991e+00	1.797542e+00	
35	5.656000e-04	1.798884e+00	1.797991e+00	1.797542e+00	
36	5.856000e-04	1.798884e+00	1.797991e+00	1.797542e+00	
37	6.056000e-04	1.798884e+00	1.797991e+00	1.797542e+00	
38	6.256000e-04	1.798884e+00	1.797991e+00	1.797542e+00	
39	6.456000e-04	1.798884e+00	1.797991e+00	1.797542e+00	
40	6.656000e-04	1.798884e+00	1.797991e+00	1.797542e+00	
41	6.856000e-04	1.798884e+00	1.797991e+00	1.797542e+00	
42	7.056000e-04	1.798884e+00	1.797991e+00	1.797542e+00	
43	7.256000e-04	1.798884e+00	1.797991e+00	1.797542e+00	
44	7.456000e-04	1.798884e+00	1.797991e+00	1.797542e+00	
45	7.656000e-04	1.798884e+00	1.797991e+00	1.797542e+00	
46	7.856000e-04	1.798884e+00	1.797991e+00	1.797542e+00	
47	8.056000e-04	1.798884e+00	1.797991e+00	1.797542e+00	
48	8.256000e-04	1.798884e+00	1.797991e+00	1.797542e+00	
49	8.456000e-04	1.798884e+00	1.797991e+00	1.797542e+00	
50	8.656000e-04	1.798884e+00	1.797991e+00	1.797542e+00	
51	8.856000e-04	1.798884e+00	1.797991e+00	1.797542e+00	
52	9.056000e-04	1.798884e+00	1.797991e+00	1.797542e+00	
53	9.256000e-04	1.798884e+00	1.797991e+00	1.797542e+00	
54	9.456000e-04	1.798884e+00	1.797991e+00	1.797542e+00	

Index   time            v(vin_main)     v(vmaster)      v(vu2)          
--------------------------------------------------------------------------------
55	9.656000e-04	1.798884e+00	1.797991e+00	1.797542e+00	
56	9.856000e-04	1.798884e+00	1.797991e+00	1.797542e+00	
57	1.000000e-03	1.798884e+00	1.797991e+00	1.797542e+00	
58	1.002000e-03	1.798884e+00	1.797991e+00	1.797542e+00	
59	1.006000e-03	1.798884e+00	1.797991e+00	1.797542e+00	
60	1.014000e-03	1.798884e+00	1.797991e+00	1.797542e+00	
61	1.020000e-03	1.436412e+00	1.474746e+00	1.483788e+00	
62	1.021407e-03	1.441399e+00	1.448311e+00	1.450102e+00	
63	1.024222e-03	1.528294e+00	1.505715e+00	1.499995e+00	
64	1.029275e-03	1.692250e+00	1.686733e+00	1.685063e+00	
65	1.035175e-03	1.742047e+00	1.739288e+00	1.738473e+00	
66	1.042820e-03	1.776363e+00	1.774043e+00	1.773163e+00	
67	1.055699e-03	1.788454e+00	1.788186e+00	1.787968e+00	
68	1.075699e-03	1.795557e+00	1.793846e+00	1.793122e+00	
69	1.095699e-03	1.793643e+00	1.793575e+00	1.793400e+00	
70	1.115699e-03	1.795547e+00	1.793831e+00	1.793112e+00	
71	1.135699e-03	1.793952e+00	1.793877e+00	1.793694e+00	
72	1.155699e-03	1.795332e+00	1.793641e+00	1.792935e+00	
73	1.175699e-03	1.794129e+00	1.794017e+00	1.793820e+00	
74	1.195699e-03	1.795189e+00	1.793543e+00	1.792853e+00	
75	1.215699e-03	1.794246e+00	1.794084e+00	1.793868e+00	
76	1.235699e-03	1.795093e+00	1.793501e+00	1.792829e+00	
77	1.255699e-03	1.794326e+00	1.794108e+00	1.793873e+00	
78	1.275699e-03	1.795025e+00	1.793490e+00	1.792837e+00	
79	1.295699e-03	1.794383e+00	1.794109e+00	1.793856e+00	
80	1.315699e-03	1.794976e+00	1.793497e+00	1.792862e+00	
81	1.335699e-03	1.794426e+00	1.794097e+00	1.793826e+00	
82	1.355699e-03	1.794938e+00	1.793512e+00	1.792894e+00	
83	1.375699e-03	1.794460e+00	1.794079e+00	1.793792e+00	
84	1.395699e-03	1.794908e+00	1.793532e+00	1.792930e+00	
85	1.415699e-03	1.794487e+00	1.794058e+00	1.793756e+00	
86	1.435699e-03	1.794883e+00	1.793553e+00	1.792965e+00	
87	1.455699e-03	1.794510e+00	1.794037e+00	1.793721e+00	
88	1.475699e-03	1.794862e+00	1.793574e+00	1.793000e+00	
89	1.495699e-03	1.794529e+00	1.794016e+00	1.793687e+00	
90	1.515699e-03	1.794844e+00	1.793594e+00	1.793032e+00	
91	1.535699e-03	1.794546e+00	1.793996e+00	1.793656e+00	
92	1.555699e-03	1.794829e+00	1.793613e+00	1.793062e+00	
93	1.575699e-03	1.794560e+00	1.793978e+00	1.793627e+00	
94	1.595699e-03	1.794815e+00	1.793631e+00	1.793090e+00	
95	1.615699e-03	1.794573e+00	1.793961e+00	1.793601e+00	
96	1.635699e-03	1.794803e+00	1.793647e+00	1.793115e+00	
97	1.655699e-03	1.794585e+00	1.793946e+00	1.793577e+00	
98	1.675699e-03	1.794792e+00	1.793662e+00	1.793138e+00	
99	1.695699e-03	1.794596e+00	1.793932e+00	1.793555e+00	
100	1.715699e-03	1.794782e+00	1.793675e+00	1.793158e+00	
101	1.735699e-03	1.794605e+00	1.793919e+00	1.793536e+00	
102	1.755699e-03	1.794773e+00	1.793687e+00	1.793177e+00	
103	1.775699e-03	1.794613e+00	1.793907e+00	1.793518e+00	
104	1.795699e-03	1.794765e+00	1.793698e+00	1.793194e+00	
105	1.815699e-03	1.794621e+00	1.793897e+00	1.793502e+00	
106	1.835699e-03	1.794758e+00	1.793708e+00	1.793209e+00	
107	1.855699e-03	1.794628e+00	1.793888e+00	1.793487e+00	
108	1.875699e-03	1.794751e+00	1.793717e+00	1.793223e+00	
109	1.895699e-03	1.794634e+00	1.793879e+00	1.793474e+00	
110	1.915699e-03	1.794745e+00	1.793725e+00	1.793236e+00	
111	1.935699e-03	1.794639e+00	1.793871e+00	1.793462e+00	
112	1.955699e-03	1.794740e+00	1.793733e+00	1.793247e+00	

Index   time            v(vin_main)     v(vmaster)      v(vu2)          
--------------------------------------------------------------------------------
113	1.975699e-03	1.794645e+00	1.793864e+00	1.793451e+00	
114	1.995699e-03	1.794735e+00	1.793739e+00	1.793257e+00	
115	2.015699e-03	1.794649e+00	1.793858e+00	1.793442e+00	
116	2.035699e-03	1.794731e+00	1.793745e+00	1.793266e+00	
117	2.055699e-03	1.794653e+00	1.793852e+00	1.793433e+00	
118	2.075699e-03	1.794727e+00	1.793751e+00	1.793275e+00	
119	2.095699e-03	1.794657e+00	1.793847e+00	1.793425e+00	
120	2.115699e-03	1.794723e+00	1.793755e+00	1.793282e+00	
121	2.135699e-03	1.794660e+00	1.793843e+00	1.793418e+00	
122	2.155699e-03	1.794720e+00	1.793760e+00	1.793289e+00	
123	2.175699e-03	1.794663e+00	1.793839e+00	1.793412e+00	
124	2.195699e-03	1.794717e+00	1.793764e+00	1.793295e+00	
125	2.215699e-03	1.794666e+00	1.793835e+00	1.793406e+00	
126	2.235699e-03	1.794715e+00	1.793767e+00	1.793301e+00	
127	2.255699e-03	1.794668e+00	1.793831e+00	1.793400e+00	
128	2.275699e-03	1.794713e+00	1.793771e+00	1.793306e+00	
129	2.295699e-03	1.794671e+00	1.793828e+00	1.793396e+00	
130	2.315699e-03	1.794710e+00	1.793773e+00	1.793310e+00	
131	2.335699e-03	1.794673e+00	1.793826e+00	1.793392e+00	
132	2.355699e-03	1.794709e+00	1.793776e+00	1.793314e+00	
133	2.375699e-03	1.794674e+00	1.793823e+00	1.793388e+00	
134	2.395699e-03	1.794707e+00	1.793778e+00	1.793318e+00	
135	2.415699e-03	1.794676e+00	1.793821e+00	1.793384e+00	
136	2.435699e-03	1.794705e+00	1.793781e+00	1.793321e+00	
137	2.455699e-03	1.794677e+00	1.793819e+00	1.793381e+00	
138	2.475699e-03	1.794704e+00	1.793783e+00	1.793324e+00	
139	2.495699e-03	1.794679e+00	1.793817e+00	1.793378e+00	
140	2.515699e-03	1.794703e+00	1.793784e+00	1.793327e+00	
141	2.535699e-03	1.794680e+00	1.793815e+00	1.793376e+00	
142	2.555699e-03	1.794701e+00	1.793786e+00	1.793329e+00	
143	2.575699e-03	1.794681e+00	1.793814e+00	1.793373e+00	
144	2.595699e-03	1.794700e+00	1.793787e+00	1.793331e+00	
145	2.615699e-03	1.794682e+00	1.793812e+00	1.793371e+00	
146	2.635699e-03	1.794700e+00	1.793789e+00	1.793333e+00	
147	2.655699e-03	1.794683e+00	1.793811e+00	1.793369e+00	
148	2.675699e-03	1.794699e+00	1.793790e+00	1.793335e+00	
149	2.695699e-03	1.794684e+00	1.793810e+00	1.793368e+00	
150	2.715699e-03	1.794698e+00	1.793791e+00	1.793337e+00	
151	2.735699e-03	1.794684e+00	1.793809e+00	1.793366e+00	
152	2.755699e-03	1.794697e+00	1.793792e+00	1.793338e+00	
153	2.775699e-03	1.794685e+00	1.793808e+00	1.793365e+00	
154	2.795699e-03	1.794697e+00	1.793793e+00	1.793340e+00	
155	2.815699e-03	1.794686e+00	1.793807e+00	1.793364e+00	
156	2.835699e-03	1.794696e+00	1.793793e+00	1.793341e+00	
157	2.855699e-03	1.794686e+00	1.793807e+00	1.793362e+00	
158	2.875699e-03	1.794696e+00	1.793794e+00	1.793342e+00	
159	2.895699e-03	1.794687e+00	1.793806e+00	1.793361e+00	
160	2.915699e-03	1.794695e+00	1.793795e+00	1.793343e+00	
161	2.935699e-03	1.794687e+00	1.793805e+00	1.793360e+00	
162	2.955699e-03	1.794695e+00	1.793795e+00	1.793344e+00	
163	2.975699e-03	1.794687e+00	1.793805e+00	1.793360e+00	
164	2.995699e-03	1.794694e+00	1.793796e+00	1.793344e+00	
165	3.015699e-03	1.794688e+00	1.793804e+00	1.793359e+00	
166	3.035699e-03	1.794694e+00	1.793796e+00	1.793345e+00	
167	3.055699e-03	1.794688e+00	1.793804e+00	1.793358e+00	
168	3.075699e-03	1.794694e+00	1.793797e+00	1.793346e+00	
169	3.095699e-03	1.794688e+00	1.793804e+00	1.793358e+00	
170	3.115699e-03	1.794693e+00	1.793797e+00	1.793346e+00	

Index   time            v(vin_main)     v(vmaster)      v(vu2)          
--------------------------------------------------------------------------------
171	3.135699e-03	1.794689e+00	1.793803e+00	1.793357e+00	
172	3.155699e-03	1.794693e+00	1.793797e+00	1.793347e+00	
173	3.175699e-03	1.794689e+00	1.793803e+00	1.793357e+00	
174	3.195699e-03	1.794693e+00	1.793798e+00	1.793347e+00	
175	3.215699e-03	1.794689e+00	1.793803e+00	1.793356e+00	
176	3.235699e-03	1.794693e+00	1.793798e+00	1.793348e+00	
177	3.255699e-03	1.794689e+00	1.793802e+00	1.793356e+00	
178	3.275699e-03	1.794693e+00	1.793798e+00	1.793348e+00	
179	3.295699e-03	1.794689e+00	1.793802e+00	1.793355e+00	
180	3.315699e-03	1.794692e+00	1.793798e+00	1.793349e+00	
181	3.335699e-03	1.794690e+00	1.793802e+00	1.793355e+00	
182	3.355699e-03	1.794692e+00	1.793798e+00	1.793349e+00	
183	3.375699e-03	1.794690e+00	1.793802e+00	1.793355e+00	
184	3.395699e-03	1.794692e+00	1.793799e+00	1.793349e+00	
185	3.415699e-03	1.794690e+00	1.793802e+00	1.793354e+00	
186	3.435699e-03	1.794692e+00	1.793799e+00	1.793349e+00	
187	3.455699e-03	1.794690e+00	1.793801e+00	1.793354e+00	
188	3.475699e-03	1.794692e+00	1.793799e+00	1.793350e+00	
189	3.495699e-03	1.794690e+00	1.793801e+00	1.793354e+00	
190	3.515699e-03	1.794692e+00	1.793799e+00	1.793350e+00	
191	3.535699e-03	1.794690e+00	1.793801e+00	1.793354e+00	
192	3.555699e-03	1.794692e+00	1.793799e+00	1.793350e+00	
193	3.575699e-03	1.794690e+00	1.793801e+00	1.793354e+00	
194	3.595699e-03	1.794692e+00	1.793799e+00	1.793350e+00	
195	3.615699e-03	1.794690e+00	1.793801e+00	1.793353e+00	
196	3.635699e-03	1.794692e+00	1.793799e+00	1.793350e+00	
197	3.655699e-03	1.794690e+00	1.793801e+00	1.793353e+00	
198	3.675699e-03	1.794692e+00	1.793800e+00	1.793350e+00	
199	3.695699e-03	1.794690e+00	1.793801e+00	1.793353e+00	
200	3.715699e-03	1.794692e+00	1.793800e+00	1.793351e+00	
201	3.735699e-03	1.794690e+00	1.793801e+00	1.793353e+00	
202	3.755699e-03	1.794691e+00	1.793800e+00	1.793351e+00	
203	3.775699e-03	1.794691e+00	1.793801e+00	1.793353e+00	
204	3.795699e-03	1.794691e+00	1.793800e+00	1.793351e+00	
205	3.815699e-03	1.794691e+00	1.793801e+00	1.793353e+00	
206	3.835699e-03	1.794691e+00	1.793800e+00	1.793351e+00	
207	3.855699e-03	1.794691e+00	1.793801e+00	1.793353e+00	
208	3.875699e-03	1.794691e+00	1.793800e+00	1.793351e+00	
209	3.895699e-03	1.794691e+00	1.793800e+00	1.793353e+00	
210	3.915699e-03	1.794691e+00	1.793800e+00	1.793351e+00	
211	3.935699e-03	1.794691e+00	1.793800e+00	1.793353e+00	
212	3.955699e-03	1.794691e+00	1.793800e+00	1.793351e+00	
213	3.975699e-03	1.794691e+00	1.793800e+00	1.793353e+00	
214	3.995699e-03	1.794691e+00	1.793800e+00	1.793351e+00	
215	4.015699e-03	1.794691e+00	1.793800e+00	1.793352e+00	
216	4.035699e-03	1.794691e+00	1.793800e+00	1.793351e+00	
217	4.055699e-03	1.794691e+00	1.793800e+00	1.793352e+00	
218	4.075699e-03	1.794691e+00	1.793800e+00	1.793351e+00	
219	4.095699e-03	1.794691e+00	1.793800e+00	1.793352e+00	
220	4.115699e-03	1.794691e+00	1.793800e+00	1.793351e+00	
221	4.135699e-03	1.794691e+00	1.793800e+00	1.793352e+00	
222	4.155699e-03	1.794691e+00	1.793800e+00	1.793351e+00	
223	4.175699e-03	1.794691e+00	1.793800e+00	1.793352e+00	
224	4.195699e-03	1.794691e+00	1.793800e+00	1.793351e+00	
225	4.215699e-03	1.794691e+00	1.793800e+00	1.793352e+00	
226	4.235699e-03	1.794691e+00	1.793800e+00	1.793351e+00	
227	4.255699e-03	1.794691e+00	1.793800e+00	1.793352e+00	
228	4.275699e-03	1.794691e+00	1.793800e+00	1.793351e+00	

Index   time            v(vin_main)     v(vmaster)      v(vu2)          
--------------------------------------------------------------------------------
229	4.295699e-03	1.794691e+00	1.793800e+00	1.793352e+00	
230	4.315699e-03	1.794691e+00	1.793800e+00	1.793352e+00	
231	4.335699e-03	1.794691e+00	1.793800e+00	1.793352e+00	
232	4.355699e-03	1.794691e+00	1.793800e+00	1.793352e+00	
233	4.375699e-03	1.794691e+00	1.793800e+00	1.793352e+00	
234	4.395699e-03	1.794691e+00	1.793800e+00	1.793352e+00	
235	4.415699e-03	1.794691e+00	1.793800e+00	1.793352e+00	
236	4.435699e-03	1.794691e+00	1.793800e+00	1.793352e+00	
237	4.455699e-03	1.794691e+00	1.793800e+00	1.793352e+00	
238	4.475699e-03	1.794691e+00	1.793800e+00	1.793352e+00	
239	4.495699e-03	1.794691e+00	1.793800e+00	1.793352e+00	
240	4.515699e-03	1.794691e+00	1.793800e+00	1.793352e+00	
241	4.535699e-03	1.794691e+00	1.793800e+00	1.793352e+00	
242	4.555699e-03	1.794691e+00	1.793800e+00	1.793352e+00	
243	4.575699e-03	1.794691e+00	1.793800e+00	1.793352e+00	
244	4.595699e-03	1.794691e+00	1.793800e+00	1.793352e+00	
245	4.615699e-03	1.794691e+00	1.793800e+00	1.793352e+00	
246	4.635699e-03	1.794691e+00	1.793800e+00	1.793352e+00	
247	4.655699e-03	1.794691e+00	1.793800e+00	1.793352e+00	
248	4.675699e-03	1.794691e+00	1.793800e+00	1.793352e+00	
249	4.695699e-03	1.794691e+00	1.793800e+00	1.793352e+00	
250	4.715699e-03	1.794691e+00	1.793800e+00	1.793352e+00	
251	4.735699e-03	1.794691e+00	1.793800e+00	1.793352e+00	
252	4.755699e-03	1.794691e+00	1.793800e+00	1.793352e+00	
253	4.775699e-03	1.794691e+00	1.793800e+00	1.793352e+00	
254	4.795699e-03	1.794691e+00	1.793800e+00	1.793352e+00	
255	4.815699e-03	1.794691e+00	1.793800e+00	1.793352e+00	
256	4.835699e-03	1.794691e+00	1.793800e+00	1.793352e+00	
257	4.855699e-03	1.794691e+00	1.793800e+00	1.793352e+00	
258	4.875699e-03	1.794691e+00	1.793800e+00	1.793352e+00	
259	4.895699e-03	1.794691e+00	1.793800e+00	1.793352e+00	
260	4.915699e-03	1.794691e+00	1.793800e+00	1.793352e+00	
261	4.935699e-03	1.794691e+00	1.793800e+00	1.793352e+00	
262	4.955699e-03	1.794691e+00	1.793800e+00	1.793352e+00	
263	4.975699e-03	1.794691e+00	1.793800e+00	1.793352e+00	
264	4.995699e-03	1.794691e+00	1.793800e+00	1.793352e+00	
265	5.015699e-03	1.794691e+00	1.793800e+00	1.793352e+00	
266	5.035699e-03	1.794691e+00	1.793800e+00	1.793352e+00	
267	5.055699e-03	1.794691e+00	1.793800e+00	1.793352e+00	
268	5.075699e-03	1.794691e+00	1.793800e+00	1.793352e+00	
269	5.095699e-03	1.794691e+00	1.793800e+00	1.793352e+00	
270	5.115699e-03	1.794691e+00	1.793800e+00	1.793352e+00	
271	5.135699e-03	1.794691e+00	1.793800e+00	1.793352e+00	
272	5.155699e-03	1.794691e+00	1.793800e+00	1.793352e+00	
273	5.175699e-03	1.794691e+00	1.793800e+00	1.793352e+00	
274	5.195699e-03	1.794691e+00	1.793800e+00	1.793352e+00	
275	5.215699e-03	1.794691e+00	1.793800e+00	1.793352e+00	
276	5.235699e-03	1.794691e+00	1.793800e+00	1.793352e+00	
277	5.255699e-03	1.794691e+00	1.793800e+00	1.793352e+00	
278	5.275699e-03	1.794691e+00	1.793800e+00	1.793352e+00	
279	5.295699e-03	1.794691e+00	1.793800e+00	1.793352e+00	
280	5.315699e-03	1.794691e+00	1.793800e+00	1.793352e+00	
281	5.335699e-03	1.794691e+00	1.793800e+00	1.793352e+00	
282	5.355699e-03	1.794691e+00	1.793800e+00	1.793352e+00	
283	5.375699e-03	1.794691e+00	1.793800e+00	1.793352e+00	
284	5.395699e-03	1.794691e+00	1.793800e+00	1.793352e+00	
285	5.415699e-03	1.794691e+00	1.793800e+00	1.793352e+00	
286	5.435699e-03	1.794691e+00	1.793800e+00	1.793352e+00	

Index   time            v(vin_main)     v(vmaster)      v(vu2)          
--------------------------------------------------------------------------------
287	5.455699e-03	1.794691e+00	1.793800e+00	1.793352e+00	
288	5.475699e-03	1.794691e+00	1.793800e+00	1.793352e+00	
289	5.495699e-03	1.794691e+00	1.793800e+00	1.793352e+00	
290	5.515699e-03	1.794691e+00	1.793800e+00	1.793352e+00	
291	5.535699e-03	1.794691e+00	1.793800e+00	1.793352e+00	
292	5.555699e-03	1.794691e+00	1.793800e+00	1.793352e+00	
293	5.575699e-03	1.794691e+00	1.793800e+00	1.793352e+00	
294	5.595699e-03	1.794691e+00	1.793800e+00	1.793352e+00	
295	5.615699e-03	1.794691e+00	1.793800e+00	1.793352e+00	
296	5.635699e-03	1.794691e+00	1.793800e+00	1.793352e+00	
297	5.655699e-03	1.794691e+00	1.793800e+00	1.793352e+00	
298	5.675699e-03	1.794691e+00	1.793800e+00	1.793352e+00	
299	5.695699e-03	1.794691e+00	1.793800e+00	1.793352e+00	
300	5.715699e-03	1.794691e+00	1.793800e+00	1.793352e+00	
301	5.735699e-03	1.794691e+00	1.793800e+00	1.793352e+00	
302	5.755699e-03	1.794691e+00	1.793800e+00	1.793352e+00	
303	5.775699e-03	1.794691e+00	1.793800e+00	1.793352e+00	
304	5.795699e-03	1.794691e+00	1.793800e+00	1.793352e+00	
305	5.815699e-03	1.794691e+00	1.793800e+00	1.793352e+00	
306	5.835699e-03	1.794691e+00	1.793800e+00	1.793352e+00	
307	5.855699e-03	1.794691e+00	1.793800e+00	1.793352e+00	
308	5.875699e-03	1.794691e+00	1.793800e+00	1.793352e+00	
309	5.895699e-03	1.794691e+00	1.793800e+00	1.793352e+00	
310	5.915699e-03	1.794691e+00	1.793800e+00	1.793352e+00	
311	5.935699e-03	1.794691e+00	1.793800e+00	1.793352e+00	
312	5.955699e-03	1.794691e+00	1.793800e+00	1.793352e+00	
313	5.975699e-03	1.794691e+00	1.793800e+00	1.793352e+00	
314	5.995699e-03	1.794691e+00	1.793800e+00	1.793352e+00	
315	6.015699e-03	1.794691e+00	1.793800e+00	1.793352e+00	
316	6.035699e-03	1.794691e+00	1.793800e+00	1.793352e+00	
317	6.055699e-03	1.794691e+00	1.793800e+00	1.793352e+00	
318	6.075699e-03	1.794691e+00	1.793800e+00	1.793352e+00	
319	6.095699e-03	1.794691e+00	1.793800e+00	1.793352e+00	
320	6.115699e-03	1.794691e+00	1.793800e+00	1.793352e+00	
321	6.135699e-03	1.794691e+00	1.793800e+00	1.793352e+00	
322	6.155699e-03	1.794691e+00	1.793800e+00	1.793352e+00	
323	6.175699e-03	1.794691e+00	1.793800e+00	1.793352e+00	
324	6.195699e-03	1.794691e+00	1.793800e+00	1.793352e+00	
325	6.215699e-03	1.794691e+00	1.793800e+00	1.793352e+00	
326	6.235699e-03	1.794691e+00	1.793800e+00	1.793352e+00	
327	6.255699e-03	1.794691e+00	1.793800e+00	1.793352e+00	
328	6.275699e-03	1.794691e+00	1.793800e+00	1.793352e+00	
329	6.295699e-03	1.794691e+00	1.793800e+00	1.793352e+00	
330	6.315699e-03	1.794691e+00	1.793800e+00	1.793352e+00	
331	6.335699e-03	1.794691e+00	1.793800e+00	1.793352e+00	
332	6.355699e-03	1.794691e+00	1.793800e+00	1.793352e+00	
333	6.375699e-03	1.794691e+00	1.793800e+00	1.793352e+00	
334	6.395699e-03	1.794691e+00	1.793800e+00	1.793352e+00	
335	6.415699e-03	1.794691e+00	1.793800e+00	1.793352e+00	
336	6.435699e-03	1.794691e+00	1.793800e+00	1.793352e+00	
337	6.455699e-03	1.794691e+00	1.793800e+00	1.793352e+00	
338	6.475699e-03	1.794691e+00	1.793800e+00	1.793352e+00	
339	6.495699e-03	1.794691e+00	1.793800e+00	1.793352e+00	
340	6.515699e-03	1.794691e+00	1.793800e+00	1.793352e+00	
341	6.535699e-03	1.794691e+00	1.793800e+00	1.793352e+00	
342	6.555699e-03	1.794691e+00	1.793800e+00	1.793352e+00	
343	6.575699e-03	1.794691e+00	1.793800e+00	1.793352e+00	
344	6.595699e-03	1.794691e+00	1.793800e+00	1.793352e+00	

Index   time            v(vin_main)     v(vmaster)      v(vu2)          
--------------------------------------------------------------------------------
345	6.615699e-03	1.794691e+00	1.793800e+00	1.793352e+00	
346	6.635699e-03	1.794691e+00	1.793800e+00	1.793352e+00	
347	6.655699e-03	1.794691e+00	1.793800e+00	1.793352e+00	
348	6.675699e-03	1.794691e+00	1.793800e+00	1.793352e+00	
349	6.695699e-03	1.794691e+00	1.793800e+00	1.793352e+00	
350	6.715699e-03	1.794691e+00	1.793800e+00	1.793352e+00	
351	6.735699e-03	1.794691e+00	1.793800e+00	1.793352e+00	
352	6.755699e-03	1.794691e+00	1.793800e+00	1.793352e+00	
353	6.775699e-03	1.794691e+00	1.793800e+00	1.793352e+00	
354	6.795699e-03	1.794691e+00	1.793800e+00	1.793352e+00	
355	6.815699e-03	1.794691e+00	1.793800e+00	1.793352e+00	
356	6.835699e-03	1.794691e+00	1.793800e+00	1.793352e+00	
357	6.855699e-03	1.794691e+00	1.793800e+00	1.793352e+00	
358	6.875699e-03	1.794691e+00	1.793800e+00	1.793352e+00	
359	6.895699e-03	1.794691e+00	1.793800e+00	1.793352e+00	
360	6.915699e-03	1.794691e+00	1.793800e+00	1.793352e+00	
361	6.935699e-03	1.794691e+00	1.793800e+00	1.793352e+00	
362	6.955699e-03	1.794691e+00	1.793800e+00	1.793352e+00	
363	6.975699e-03	1.794691e+00	1.793800e+00	1.793352e+00	
364	6.995699e-03	1.794691e+00	1.793800e+00	1.793352e+00	
365	7.015699e-03	1.794691e+00	1.793800e+00	1.793352e+00	
366	7.035699e-03	1.794691e+00	1.793800e+00	1.793352e+00	
367	7.055699e-03	1.794691e+00	1.793800e+00	1.793352e+00	
368	7.075699e-03	1.794691e+00	1.793800e+00	1.793352e+00	
369	7.095699e-03	1.794691e+00	1.793800e+00	1.793352e+00	
370	7.115699e-03	1.794691e+00	1.793800e+00	1.793352e+00	
371	7.135699e-03	1.794691e+00	1.793800e+00	1.793352e+00	
372	7.155699e-03	1.794691e+00	1.793800e+00	1.793352e+00	
373	7.175699e-03	1.794691e+00	1.793800e+00	1.793352e+00	
374	7.195699e-03	1.794691e+00	1.793800e+00	1.793352e+00	
375	7.215699e-03	1.794691e+00	1.793800e+00	1.793352e+00	
376	7.235699e-03	1.794691e+00	1.793800e+00	1.793352e+00	
377	7.255699e-03	1.794691e+00	1.793800e+00	1.793352e+00	
378	7.275699e-03	1.794691e+00	1.793800e+00	1.793352e+00	
379	7.295699e-03	1.794691e+00	1.793800e+00	1.793352e+00	
380	7.315699e-03	1.794691e+00	1.793800e+00	1.793352e+00	
381	7.335699e-03	1.794691e+00	1.793800e+00	1.793352e+00	
382	7.355699e-03	1.794691e+00	1.793800e+00	1.793352e+00	
383	7.375699e-03	1.794691e+00	1.793800e+00	1.793352e+00	
384	7.395699e-03	1.794691e+00	1.793800e+00	1.793352e+00	
385	7.415699e-03	1.794691e+00	1.793800e+00	1.793352e+00	
386	7.435699e-03	1.794691e+00	1.793800e+00	1.793352e+00	
387	7.455699e-03	1.794691e+00	1.793800e+00	1.793352e+00	
388	7.475699e-03	1.794691e+00	1.793800e+00	1.793352e+00	
389	7.495699e-03	1.794691e+00	1.793800e+00	1.793352e+00	
390	7.515699e-03	1.794691e+00	1.793800e+00	1.793352e+00	
391	7.535699e-03	1.794691e+00	1.793800e+00	1.793352e+00	
392	7.555699e-03	1.794691e+00	1.793800e+00	1.793352e+00	
393	7.575699e-03	1.794691e+00	1.793800e+00	1.793352e+00	
394	7.595699e-03	1.794691e+00	1.793800e+00	1.793352e+00	
395	7.615699e-03	1.794691e+00	1.793800e+00	1.793352e+00	
396	7.635699e-03	1.794691e+00	1.793800e+00	1.793352e+00	
397	7.655699e-03	1.794691e+00	1.793800e+00	1.793352e+00	
398	7.675699e-03	1.794691e+00	1.793800e+00	1.793352e+00	
399	7.695699e-03	1.794691e+00	1.793800e+00	1.793352e+00	
400	7.715699e-03	1.794691e+00	1.793800e+00	1.793352e+00	
401	7.735699e-03	1.794691e+00	1.793800e+00	1.793352e+00	
402	7.755699e-03	1.794691e+00	1.793800e+00	1.793352e+00	

Index   time            v(vin_main)     v(vmaster)      v(vu2)          
--------------------------------------------------------------------------------
403	7.775699e-03	1.794691e+00	1.793800e+00	1.793352e+00	
404	7.795699e-03	1.794691e+00	1.793800e+00	1.793352e+00	
405	7.815699e-03	1.794691e+00	1.793800e+00	1.793352e+00	
406	7.835699e-03	1.794691e+00	1.793800e+00	1.793352e+00	
407	7.855699e-03	1.794691e+00	1.793800e+00	1.793352e+00	
408	7.875699e-03	1.794691e+00	1.793800e+00	1.793352e+00	
409	7.895699e-03	1.794691e+00	1.793800e+00	1.793352e+00	
410	7.915699e-03	1.794691e+00	1.793800e+00	1.793352e+00	
411	7.935699e-03	1.794691e+00	1.793800e+00	1.793352e+00	
412	7.955699e-03	1.794691e+00	1.793800e+00	1.793352e+00	
413	7.975699e-03	1.794691e+00	1.793800e+00	1.793352e+00	
414	7.995699e-03	1.794691e+00	1.793800e+00	1.793352e+00	
415	8.015699e-03	1.794691e+00	1.793800e+00	1.793352e+00	
416	8.035699e-03	1.794691e+00	1.793800e+00	1.793352e+00	
417	8.055699e-03	1.794691e+00	1.793800e+00	1.793352e+00	
418	8.075699e-03	1.794691e+00	1.793800e+00	1.793352e+00	
419	8.095699e-03	1.794691e+00	1.793800e+00	1.793352e+00	
420	8.115699e-03	1.794691e+00	1.793800e+00	1.793352e+00	
421	8.135699e-03	1.794691e+00	1.793800e+00	1.793352e+00	
422	8.155699e-03	1.794691e+00	1.793800e+00	1.793352e+00	
423	8.175699e-03	1.794691e+00	1.793800e+00	1.793352e+00	
424	8.195699e-03	1.794691e+00	1.793800e+00	1.793352e+00	
425	8.215699e-03	1.794691e+00	1.793800e+00	1.793352e+00	
426	8.235699e-03	1.794691e+00	1.793800e+00	1.793352e+00	
427	8.255699e-03	1.794691e+00	1.793800e+00	1.793352e+00	
428	8.275699e-03	1.794691e+00	1.793800e+00	1.793352e+00	
429	8.295699e-03	1.794691e+00	1.793800e+00	1.793352e+00	
430	8.315699e-03	1.794691e+00	1.793800e+00	1.793352e+00	
431	8.335699e-03	1.794691e+00	1.793800e+00	1.793352e+00	
432	8.355699e-03	1.794691e+00	1.793800e+00	1.793352e+00	
433	8.375699e-03	1.794691e+00	1.793800e+00	1.793352e+00	
434	8.395699e-03	1.794691e+00	1.793800e+00	1.793352e+00	
435	8.415699e-03	1.794691e+00	1.793800e+00	1.793352e+00	
436	8.435699e-03	1.794691e+00	1.793800e+00	1.793352e+00	
437	8.455699e-03	1.794691e+00	1.793800e+00	1.793352e+00	
438	8.475699e-03	1.794691e+00	1.793800e+00	1.793352e+00	
439	8.495699e-03	1.794691e+00	1.793800e+00	1.793352e+00	
440	8.515699e-03	1.794691e+00	1.793800e+00	1.793352e+00	
441	8.535699e-03	1.794691e+00	1.793800e+00	1.793352e+00	
442	8.555699e-03	1.794691e+00	1.793800e+00	1.793352e+00	
443	8.575699e-03	1.794691e+00	1.793800e+00	1.793352e+00	
444	8.595699e-03	1.794691e+00	1.793800e+00	1.793352e+00	
445	8.615699e-03	1.794691e+00	1.793800e+00	1.793352e+00	
446	8.635699e-03	1.794691e+00	1.793800e+00	1.793352e+00	
447	8.655699e-03	1.794691e+00	1.793800e+00	1.793352e+00	
448	8.675699e-03	1.794691e+00	1.793800e+00	1.793352e+00	
449	8.695699e-03	1.794691e+00	1.793800e+00	1.793352e+00	
450	8.715699e-03	1.794691e+00	1.793800e+00	1.793352e+00	
451	8.735699e-03	1.794691e+00	1.793800e+00	1.793352e+00	
452	8.755699e-03	1.794691e+00	1.793800e+00	1.793352e+00	
453	8.775699e-03	1.794691e+00	1.793800e+00	1.793352e+00	
454	8.795699e-03	1.794691e+00	1.793800e+00	1.793352e+00	
455	8.815699e-03	1.794691e+00	1.793800e+00	1.793352e+00	
456	8.835699e-03	1.794691e+00	1.793800e+00	1.793352e+00	
457	8.855699e-03	1.794691e+00	1.793800e+00	1.793352e+00	
458	8.875699e-03	1.794691e+00	1.793800e+00	1.793352e+00	
459	8.895699e-03	1.794691e+00	1.793800e+00	1.793352e+00	
460	8.915699e-03	1.794691e+00	1.793800e+00	1.793352e+00	

Index   time            v(vin_main)     v(vmaster)      v(vu2)          
--------------------------------------------------------------------------------
461	8.935699e-03	1.794691e+00	1.793800e+00	1.793352e+00	
462	8.955699e-03	1.794691e+00	1.793800e+00	1.793352e+00	
463	8.975699e-03	1.794691e+00	1.793800e+00	1.793352e+00	
464	8.995699e-03	1.794691e+00	1.793800e+00	1.793352e+00	
465	9.015699e-03	1.794691e+00	1.793800e+00	1.793352e+00	
466	9.035699e-03	1.794691e+00	1.793800e+00	1.793352e+00	
467	9.055699e-03	1.794691e+00	1.793800e+00	1.793352e+00	
468	9.075699e-03	1.794691e+00	1.793800e+00	1.793352e+00	
469	9.095699e-03	1.794691e+00	1.793800e+00	1.793352e+00	
470	9.115699e-03	1.794691e+00	1.793800e+00	1.793352e+00	
471	9.135699e-03	1.794691e+00	1.793800e+00	1.793352e+00	
472	9.155699e-03	1.794691e+00	1.793800e+00	1.793352e+00	
473	9.175699e-03	1.794691e+00	1.793800e+00	1.793352e+00	
474	9.195699e-03	1.794691e+00	1.793800e+00	1.793352e+00	
475	9.215699e-03	1.794691e+00	1.793800e+00	1.793352e+00	
476	9.235699e-03	1.794691e+00	1.793800e+00	1.793352e+00	
477	9.255699e-03	1.794691e+00	1.793800e+00	1.793352e+00	
478	9.275699e-03	1.794691e+00	1.793800e+00	1.793352e+00	
479	9.295699e-03	1.794691e+00	1.793800e+00	1.793352e+00	
480	9.315699e-03	1.794691e+00	1.793800e+00	1.793352e+00	
481	9.335699e-03	1.794691e+00	1.793800e+00	1.793352e+00	
482	9.355699e-03	1.794691e+00	1.793800e+00	1.793352e+00	
483	9.375699e-03	1.794691e+00	1.793800e+00	1.793352e+00	
484	9.395699e-03	1.794691e+00	1.793800e+00	1.793352e+00	
485	9.415699e-03	1.794691e+00	1.793800e+00	1.793352e+00	
486	9.435699e-03	1.794691e+00	1.793800e+00	1.793352e+00	
487	9.455699e-03	1.794691e+00	1.793800e+00	1.793352e+00	
488	9.475699e-03	1.794691e+00	1.793800e+00	1.793352e+00	
489	9.495699e-03	1.794691e+00	1.793800e+00	1.793352e+00	
490	9.515699e-03	1.794691e+00	1.793800e+00	1.793352e+00	
491	9.535699e-03	1.794691e+00	1.793800e+00	1.793352e+00	
492	9.555699e-03	1.794691e+00	1.793800e+00	1.793352e+00	
493	9.575699e-03	1.794691e+00	1.793800e+00	1.793352e+00	
494	9.595699e-03	1.794691e+00	1.793800e+00	1.793352e+00	
495	9.615699e-03	1.794691e+00	1.793800e+00	1.793352e+00	
496	9.635699e-03	1.794691e+00	1.793800e+00	1.793352e+00	
497	9.655699e-03	1.794691e+00	1.793800e+00	1.793352e+00	
498	9.675699e-03	1.794691e+00	1.793800e+00	1.793352e+00	
499	9.695699e-03	1.794691e+00	1.793800e+00	1.793352e+00	
500	9.715699e-03	1.794691e+00	1.793800e+00	1.793352e+00	
501	9.735699e-03	1.794691e+00	1.793800e+00	1.793352e+00	
502	9.755699e-03	1.794691e+00	1.793800e+00	1.793352e+00	
503	9.775699e-03	1.794691e+00	1.793800e+00	1.793352e+00	
504	9.795699e-03	1.794691e+00	1.793800e+00	1.793352e+00	
505	9.815699e-03	1.794691e+00	1.793800e+00	1.793352e+00	
506	9.835699e-03	1.794691e+00	1.793800e+00	1.793352e+00	
507	9.855699e-03	1.794691e+00	1.793800e+00	1.793352e+00	
508	9.875699e-03	1.794691e+00	1.793800e+00	1.793352e+00	
509	9.895699e-03	1.794691e+00	1.793800e+00	1.793352e+00	
510	9.915699e-03	1.794691e+00	1.793800e+00	1.793352e+00	
511	9.935699e-03	1.794691e+00	1.793800e+00	1.793352e+00	
512	9.955699e-03	1.794691e+00	1.793800e+00	1.793352e+00	
513	9.975699e-03	1.794691e+00	1.793800e+00	1.793352e+00	
514	9.995699e-03	1.794691e+00	1.793800e+00	1.793352e+00	
515	1.001570e-02	1.794691e+00	1.793800e+00	1.793352e+00	
516	1.003570e-02	1.794691e+00	1.793800e+00	1.793352e+00	
517	1.005570e-02	1.794691e+00	1.793800e+00	1.793352e+00	
518	1.007570e-02	1.794691e+00	1.793800e+00	1.793352e+00	

Index   time            v(vin_main)     v(vmaster)      v(vu2)          
--------------------------------------------------------------------------------
519	1.009570e-02	1.794691e+00	1.793800e+00	1.793352e+00	
520	1.011570e-02	1.794691e+00	1.793800e+00	1.793352e+00	
521	1.013570e-02	1.794691e+00	1.793800e+00	1.793352e+00	
522	1.015570e-02	1.794691e+00	1.793800e+00	1.793352e+00	
523	1.017570e-02	1.794691e+00	1.793800e+00	1.793352e+00	
524	1.019570e-02	1.794691e+00	1.793800e+00	1.793352e+00	
525	1.021570e-02	1.794691e+00	1.793800e+00	1.793352e+00	
526	1.023570e-02	1.794691e+00	1.793800e+00	1.793352e+00	
527	1.025570e-02	1.794691e+00	1.793800e+00	1.793352e+00	
528	1.027570e-02	1.794691e+00	1.793800e+00	1.793352e+00	
529	1.029570e-02	1.794691e+00	1.793800e+00	1.793352e+00	
530	1.031570e-02	1.794691e+00	1.793800e+00	1.793352e+00	
531	1.033570e-02	1.794691e+00	1.793800e+00	1.793352e+00	
532	1.035570e-02	1.794691e+00	1.793800e+00	1.793352e+00	
533	1.037570e-02	1.794691e+00	1.793800e+00	1.793352e+00	
534	1.039570e-02	1.794691e+00	1.793800e+00	1.793352e+00	
535	1.041570e-02	1.794691e+00	1.793800e+00	1.793352e+00	
536	1.043570e-02	1.794691e+00	1.793800e+00	1.793352e+00	
537	1.045570e-02	1.794691e+00	1.793800e+00	1.793352e+00	
538	1.047570e-02	1.794691e+00	1.793800e+00	1.793352e+00	
539	1.049570e-02	1.794691e+00	1.793800e+00	1.793352e+00	
540	1.051570e-02	1.794691e+00	1.793800e+00	1.793352e+00	
541	1.053570e-02	1.794691e+00	1.793800e+00	1.793352e+00	
542	1.055570e-02	1.794691e+00	1.793800e+00	1.793352e+00	
543	1.057570e-02	1.794691e+00	1.793800e+00	1.793352e+00	
544	1.059570e-02	1.794691e+00	1.793800e+00	1.793352e+00	
545	1.061570e-02	1.794691e+00	1.793800e+00	1.793352e+00	
546	1.063570e-02	1.794691e+00	1.793800e+00	1.793352e+00	
547	1.065570e-02	1.794691e+00	1.793800e+00	1.793352e+00	
548	1.067570e-02	1.794691e+00	1.793800e+00	1.793352e+00	
549	1.069570e-02	1.794691e+00	1.793800e+00	1.793352e+00	
550	1.071570e-02	1.794691e+00	1.793800e+00	1.793352e+00	
551	1.073570e-02	1.794691e+00	1.793800e+00	1.793352e+00	
552	1.075570e-02	1.794691e+00	1.793800e+00	1.793352e+00	
553	1.077570e-02	1.794691e+00	1.793800e+00	1.793352e+00	
554	1.079570e-02	1.794691e+00	1.793800e+00	1.793352e+00	
555	1.081570e-02	1.794691e+00	1.793800e+00	1.793352e+00	
556	1.083570e-02	1.794691e+00	1.793800e+00	1.793352e+00	
557	1.085570e-02	1.794691e+00	1.793800e+00	1.793352e+00	
558	1.087570e-02	1.794691e+00	1.793800e+00	1.793352e+00	
559	1.089570e-02	1.794691e+00	1.793800e+00	1.793352e+00	
560	1.091570e-02	1.794691e+00	1.793800e+00	1.793352e+00	
561	1.093570e-02	1.794691e+00	1.793800e+00	1.793352e+00	
562	1.095570e-02	1.794691e+00	1.793800e+00	1.793352e+00	
563	1.097570e-02	1.794691e+00	1.793800e+00	1.793352e+00	
564	1.099570e-02	1.794691e+00	1.793800e+00	1.793352e+00	
565	1.101570e-02	1.794691e+00	1.793800e+00	1.793352e+00	
566	1.103570e-02	1.794691e+00	1.793800e+00	1.793352e+00	
567	1.105570e-02	1.794691e+00	1.793800e+00	1.793352e+00	
568	1.107570e-02	1.794691e+00	1.793800e+00	1.793352e+00	
569	1.109570e-02	1.794691e+00	1.793800e+00	1.793352e+00	
570	1.111570e-02	1.794691e+00	1.793800e+00	1.793352e+00	
571	1.113570e-02	1.794691e+00	1.793800e+00	1.793352e+00	
572	1.115570e-02	1.794691e+00	1.793800e+00	1.793352e+00	
573	1.117570e-02	1.794691e+00	1.793800e+00	1.793352e+00	
574	1.119570e-02	1.794691e+00	1.793800e+00	1.793352e+00	
575	1.121570e-02	1.794691e+00	1.793800e+00	1.793352e+00	
576	1.123570e-02	1.794691e+00	1.793800e+00	1.793352e+00	

Index   time            v(vin_main)     v(vmaster)      v(vu2)          
--------------------------------------------------------------------------------
577	1.125570e-02	1.794691e+00	1.793800e+00	1.793352e+00	
578	1.127570e-02	1.794691e+00	1.793800e+00	1.793352e+00	
579	1.129570e-02	1.794691e+00	1.793800e+00	1.793352e+00	
580	1.131570e-02	1.794691e+00	1.793800e+00	1.793352e+00	
581	1.133570e-02	1.794691e+00	1.793800e+00	1.793352e+00	
582	1.135570e-02	1.794691e+00	1.793800e+00	1.793352e+00	
583	1.137570e-02	1.794691e+00	1.793800e+00	1.793352e+00	
584	1.139570e-02	1.794691e+00	1.793800e+00	1.793352e+00	
585	1.141570e-02	1.794691e+00	1.793800e+00	1.793352e+00	
586	1.143570e-02	1.794691e+00	1.793800e+00	1.793352e+00	
587	1.145570e-02	1.794691e+00	1.793800e+00	1.793352e+00	
588	1.147570e-02	1.794691e+00	1.793800e+00	1.793352e+00	
589	1.149570e-02	1.794691e+00	1.793800e+00	1.793352e+00	
590	1.151570e-02	1.794691e+00	1.793800e+00	1.793352e+00	
591	1.153570e-02	1.794691e+00	1.793800e+00	1.793352e+00	
592	1.155570e-02	1.794691e+00	1.793800e+00	1.793352e+00	
593	1.157570e-02	1.794691e+00	1.793800e+00	1.793352e+00	
594	1.159570e-02	1.794691e+00	1.793800e+00	1.793352e+00	
595	1.161570e-02	1.794691e+00	1.793800e+00	1.793352e+00	
596	1.163570e-02	1.794691e+00	1.793800e+00	1.793352e+00	
597	1.165570e-02	1.794691e+00	1.793800e+00	1.793352e+00	
598	1.167570e-02	1.794691e+00	1.793800e+00	1.793352e+00	
599	1.169570e-02	1.794691e+00	1.793800e+00	1.793352e+00	
600	1.171570e-02	1.794691e+00	1.793800e+00	1.793352e+00	
601	1.173570e-02	1.794691e+00	1.793800e+00	1.793352e+00	
602	1.175570e-02	1.794691e+00	1.793800e+00	1.793352e+00	
603	1.177570e-02	1.794691e+00	1.793800e+00	1.793352e+00	
604	1.179570e-02	1.794691e+00	1.793800e+00	1.793352e+00	
605	1.181570e-02	1.794691e+00	1.793800e+00	1.793352e+00	
606	1.183570e-02	1.794691e+00	1.793800e+00	1.793352e+00	
607	1.185570e-02	1.794691e+00	1.793800e+00	1.793352e+00	
608	1.187570e-02	1.794691e+00	1.793800e+00	1.793352e+00	
609	1.189570e-02	1.794691e+00	1.793800e+00	1.793352e+00	
610	1.191570e-02	1.794691e+00	1.793800e+00	1.793352e+00	
611	1.193570e-02	1.794691e+00	1.793800e+00	1.793352e+00	
612	1.195570e-02	1.794691e+00	1.793800e+00	1.793352e+00	
613	1.197570e-02	1.794691e+00	1.793800e+00	1.793352e+00	
614	1.199570e-02	1.794691e+00	1.793800e+00	1.793352e+00	
615	1.200000e-02	1.794691e+00	1.793800e+00	1.793352e+00	

                            tb001-ga144-test-bringup
                            Transient Analysis  Sat Jun 13 16:45:40  2026
--------------------------------------------------------------------------------
Index   time            v(vu1)          v(vu3)          v(reset_hold)   
--------------------------------------------------------------------------------
0	0.000000e+00	1.797847e+00	1.797916e+00	1.523721e+00	
1	2.000000e-07	1.797847e+00	1.797916e+00	1.523721e+00	
2	4.000000e-07	1.797847e+00	1.797916e+00	1.523721e+00	
3	8.000000e-07	1.797847e+00	1.797916e+00	1.523721e+00	
4	1.600000e-06	1.797847e+00	1.797916e+00	1.523721e+00	
5	3.200000e-06	1.797847e+00	1.797916e+00	1.523721e+00	
6	6.400000e-06	1.797847e+00	1.797916e+00	1.523721e+00	
7	1.280000e-05	1.797847e+00	1.797916e+00	1.523721e+00	
8	2.560000e-05	1.797847e+00	1.797916e+00	1.523721e+00	
9	4.560000e-05	1.797847e+00	1.797916e+00	1.523721e+00	
10	6.560000e-05	1.797847e+00	1.797916e+00	1.523721e+00	
11	8.560000e-05	1.797847e+00	1.797916e+00	1.523721e+00	
12	1.056000e-04	1.797847e+00	1.797916e+00	1.523721e+00	
13	1.256000e-04	1.797847e+00	1.797916e+00	1.523721e+00	
14	1.456000e-04	1.797847e+00	1.797916e+00	1.523721e+00	
15	1.656000e-04	1.797847e+00	1.797916e+00	1.523721e+00	
16	1.856000e-04	1.797847e+00	1.797916e+00	1.523721e+00	
17	2.056000e-04	1.797847e+00	1.797916e+00	1.523721e+00	
18	2.256000e-04	1.797847e+00	1.797916e+00	1.523721e+00	
19	2.456000e-04	1.797847e+00	1.797916e+00	1.523721e+00	
20	2.656000e-04	1.797847e+00	1.797916e+00	1.523721e+00	
21	2.856000e-04	1.797847e+00	1.797916e+00	1.523721e+00	
22	3.056000e-04	1.797847e+00	1.797916e+00	1.523721e+00	
23	3.256000e-04	1.797847e+00	1.797916e+00	1.523721e+00	
24	3.456000e-04	1.797847e+00	1.797916e+00	1.523721e+00	
25	3.656000e-04	1.797847e+00	1.797916e+00	1.523721e+00	
26	3.856000e-04	1.797847e+00	1.797916e+00	1.523721e+00	
27	4.056000e-04	1.797847e+00	1.797916e+00	1.523721e+00	
28	4.256000e-04	1.797847e+00	1.797916e+00	1.523721e+00	
29	4.456000e-04	1.797847e+00	1.797916e+00	1.523721e+00	
30	4.656000e-04	1.797847e+00	1.797916e+00	1.523721e+00	
31	4.856000e-04	1.797847e+00	1.797916e+00	1.523721e+00	
32	5.056000e-04	1.797847e+00	1.797916e+00	1.523721e+00	
33	5.256000e-04	1.797847e+00	1.797916e+00	1.523721e+00	
34	5.456000e-04	1.797847e+00	1.797916e+00	1.523721e+00	
35	5.656000e-04	1.797847e+00	1.797916e+00	1.523721e+00	
36	5.856000e-04	1.797847e+00	1.797916e+00	1.523721e+00	
37	6.056000e-04	1.797847e+00	1.797916e+00	1.523721e+00	
38	6.256000e-04	1.797847e+00	1.797916e+00	1.523721e+00	
39	6.456000e-04	1.797847e+00	1.797916e+00	1.523721e+00	
40	6.656000e-04	1.797847e+00	1.797916e+00	1.523721e+00	
41	6.856000e-04	1.797847e+00	1.797916e+00	1.523721e+00	
42	7.056000e-04	1.797847e+00	1.797916e+00	1.523721e+00	
43	7.256000e-04	1.797847e+00	1.797916e+00	1.523721e+00	
44	7.456000e-04	1.797847e+00	1.797916e+00	1.523721e+00	
45	7.656000e-04	1.797847e+00	1.797916e+00	1.523721e+00	
46	7.856000e-04	1.797847e+00	1.797916e+00	1.523721e+00	
47	8.056000e-04	1.797847e+00	1.797916e+00	1.523721e+00	
48	8.256000e-04	1.797847e+00	1.797916e+00	1.523721e+00	
49	8.456000e-04	1.797847e+00	1.797916e+00	1.523721e+00	
50	8.656000e-04	1.797847e+00	1.797916e+00	1.523721e+00	
51	8.856000e-04	1.797847e+00	1.797916e+00	1.523721e+00	
52	9.056000e-04	1.797847e+00	1.797916e+00	1.523721e+00	
53	9.256000e-04	1.797847e+00	1.797916e+00	1.523721e+00	
54	9.456000e-04	1.797847e+00	1.797916e+00	1.523721e+00	

Index   time            v(vu1)          v(vu3)          v(reset_hold)   
--------------------------------------------------------------------------------
55	9.656000e-04	1.797847e+00	1.797916e+00	1.523721e+00	
56	9.856000e-04	1.797847e+00	1.797916e+00	1.523721e+00	
57	1.000000e-03	1.797847e+00	1.797916e+00	1.523721e+00	
58	1.002000e-03	1.797847e+00	1.797916e+00	1.523721e+00	
59	1.006000e-03	1.797847e+00	1.797916e+00	1.523721e+00	
60	1.014000e-03	1.797847e+00	1.797916e+00	1.523721e+00	
61	1.020000e-03	1.478881e+00	1.477197e+00	1.523667e+00	
62	1.021407e-03	1.449043e+00	1.448726e+00	1.523640e+00	
63	1.024222e-03	1.503207e+00	1.504250e+00	1.523590e+00	
64	1.029275e-03	1.686090e+00	1.686371e+00	1.523533e+00	
65	1.035175e-03	1.738941e+00	1.739088e+00	1.523505e+00	
66	1.042820e-03	1.773745e+00	1.773883e+00	1.523488e+00	
67	1.055699e-03	1.788109e+00	1.788145e+00	1.523476e+00	
68	1.075699e-03	1.793613e+00	1.793724e+00	1.523469e+00	
69	1.095699e-03	1.793520e+00	1.793547e+00	1.523464e+00	
70	1.115699e-03	1.793598e+00	1.793709e+00	1.523460e+00	
71	1.135699e-03	1.793822e+00	1.793850e+00	1.523456e+00	
72	1.155699e-03	1.793411e+00	1.793520e+00	1.523451e+00	
73	1.175699e-03	1.793959e+00	1.793988e+00	1.523447e+00	
74	1.195699e-03	1.793318e+00	1.793425e+00	1.523443e+00	
75	1.215699e-03	1.794019e+00	1.794051e+00	1.523438e+00	
76	1.235699e-03	1.793281e+00	1.793385e+00	1.523434e+00	
77	1.255699e-03	1.794038e+00	1.794072e+00	1.523430e+00	
78	1.275699e-03	1.793276e+00	1.793378e+00	1.523426e+00	
79	1.295699e-03	1.794032e+00	1.794070e+00	1.523421e+00	
80	1.315699e-03	1.793289e+00	1.793387e+00	1.523417e+00	
81	1.335699e-03	1.794015e+00	1.794055e+00	1.523413e+00	
82	1.355699e-03	1.793310e+00	1.793406e+00	1.523409e+00	
83	1.375699e-03	1.793991e+00	1.794034e+00	1.523404e+00	
84	1.395699e-03	1.793335e+00	1.793428e+00	1.523400e+00	
85	1.415699e-03	1.793965e+00	1.794011e+00	1.523396e+00	
86	1.435699e-03	1.793361e+00	1.793452e+00	1.523392e+00	
87	1.455699e-03	1.793939e+00	1.793987e+00	1.523387e+00	
88	1.475699e-03	1.793387e+00	1.793476e+00	1.523383e+00	
89	1.495699e-03	1.793914e+00	1.793964e+00	1.523379e+00	
90	1.515699e-03	1.793411e+00	1.793498e+00	1.523375e+00	
91	1.535699e-03	1.793891e+00	1.793942e+00	1.523371e+00	
92	1.555699e-03	1.793434e+00	1.793519e+00	1.523366e+00	
93	1.575699e-03	1.793869e+00	1.793921e+00	1.523362e+00	
94	1.595699e-03	1.793455e+00	1.793539e+00	1.523358e+00	
95	1.615699e-03	1.793849e+00	1.793903e+00	1.523354e+00	
96	1.635699e-03	1.793474e+00	1.793557e+00	1.523350e+00	
97	1.655699e-03	1.793830e+00	1.793886e+00	1.523345e+00	
98	1.675699e-03	1.793492e+00	1.793573e+00	1.523341e+00	
99	1.695699e-03	1.793814e+00	1.793870e+00	1.523337e+00	
100	1.715699e-03	1.793508e+00	1.793588e+00	1.523333e+00	
101	1.735699e-03	1.793798e+00	1.793856e+00	1.523329e+00	
102	1.755699e-03	1.793522e+00	1.793601e+00	1.523325e+00	
103	1.775699e-03	1.793785e+00	1.793844e+00	1.523321e+00	
104	1.795699e-03	1.793535e+00	1.793613e+00	1.523316e+00	
105	1.815699e-03	1.793772e+00	1.793832e+00	1.523312e+00	
106	1.835699e-03	1.793547e+00	1.793624e+00	1.523308e+00	
107	1.855699e-03	1.793761e+00	1.793822e+00	1.523304e+00	
108	1.875699e-03	1.793557e+00	1.793634e+00	1.523300e+00	
109	1.895699e-03	1.793751e+00	1.793812e+00	1.523296e+00	
110	1.915699e-03	1.793567e+00	1.793643e+00	1.523292e+00	
111	1.935699e-03	1.793742e+00	1.793804e+00	1.523288e+00	
112	1.955699e-03	1.793576e+00	1.793651e+00	1.523284e+00	

Index   time            v(vu1)          v(vu3)          v(reset_hold)   
--------------------------------------------------------------------------------
113	1.975699e-03	1.793734e+00	1.793796e+00	1.523280e+00	
114	1.995699e-03	1.793583e+00	1.793658e+00	1.523275e+00	
115	2.015699e-03	1.793726e+00	1.793789e+00	1.523271e+00	
116	2.035699e-03	1.793591e+00	1.793665e+00	1.523267e+00	
117	2.055699e-03	1.793720e+00	1.793783e+00	1.523263e+00	
118	2.075699e-03	1.793597e+00	1.793671e+00	1.523259e+00	
119	2.095699e-03	1.793713e+00	1.793777e+00	1.523255e+00	
120	2.115699e-03	1.793603e+00	1.793676e+00	1.523251e+00	
121	2.135699e-03	1.793708e+00	1.793772e+00	1.523247e+00	
122	2.155699e-03	1.793608e+00	1.793681e+00	1.523243e+00	
123	2.175699e-03	1.793703e+00	1.793768e+00	1.523239e+00	
124	2.195699e-03	1.793613e+00	1.793685e+00	1.523235e+00	
125	2.215699e-03	1.793699e+00	1.793764e+00	1.523231e+00	
126	2.235699e-03	1.793617e+00	1.793689e+00	1.523227e+00	
127	2.255699e-03	1.793695e+00	1.793760e+00	1.523223e+00	
128	2.275699e-03	1.793621e+00	1.793693e+00	1.523219e+00	
129	2.295699e-03	1.793691e+00	1.793757e+00	1.523215e+00	
130	2.315699e-03	1.793624e+00	1.793696e+00	1.523211e+00	
131	2.335699e-03	1.793688e+00	1.793754e+00	1.523207e+00	
132	2.355699e-03	1.793627e+00	1.793699e+00	1.523203e+00	
133	2.375699e-03	1.793685e+00	1.793751e+00	1.523199e+00	
134	2.395699e-03	1.793630e+00	1.793701e+00	1.523195e+00	
135	2.415699e-03	1.793682e+00	1.793748e+00	1.523191e+00	
136	2.435699e-03	1.793633e+00	1.793704e+00	1.523187e+00	
137	2.455699e-03	1.793680e+00	1.793746e+00	1.523183e+00	
138	2.475699e-03	1.793635e+00	1.793706e+00	1.523179e+00	
139	2.495699e-03	1.793677e+00	1.793744e+00	1.523175e+00	
140	2.515699e-03	1.793637e+00	1.793708e+00	1.523171e+00	
141	2.535699e-03	1.793675e+00	1.793742e+00	1.523167e+00	
142	2.555699e-03	1.793639e+00	1.793709e+00	1.523163e+00	
143	2.575699e-03	1.793674e+00	1.793741e+00	1.523160e+00	
144	2.595699e-03	1.793641e+00	1.793711e+00	1.523156e+00	
145	2.615699e-03	1.793672e+00	1.793739e+00	1.523152e+00	
146	2.635699e-03	1.793642e+00	1.793712e+00	1.523148e+00	
147	2.655699e-03	1.793671e+00	1.793738e+00	1.523144e+00	
148	2.675699e-03	1.793643e+00	1.793714e+00	1.523140e+00	
149	2.695699e-03	1.793669e+00	1.793737e+00	1.523136e+00	
150	2.715699e-03	1.793645e+00	1.793715e+00	1.523132e+00	
151	2.735699e-03	1.793668e+00	1.793735e+00	1.523128e+00	
152	2.755699e-03	1.793646e+00	1.793716e+00	1.523124e+00	
153	2.775699e-03	1.793667e+00	1.793734e+00	1.523121e+00	
154	2.795699e-03	1.793647e+00	1.793717e+00	1.523117e+00	
155	2.815699e-03	1.793666e+00	1.793734e+00	1.523113e+00	
156	2.835699e-03	1.793648e+00	1.793718e+00	1.523109e+00	
157	2.855699e-03	1.793665e+00	1.793733e+00	1.523105e+00	
158	2.875699e-03	1.793649e+00	1.793718e+00	1.523101e+00	
159	2.895699e-03	1.793664e+00	1.793732e+00	1.523098e+00	
160	2.915699e-03	1.793649e+00	1.793719e+00	1.523094e+00	
161	2.935699e-03	1.793664e+00	1.793731e+00	1.523090e+00	
162	2.955699e-03	1.793650e+00	1.793720e+00	1.523086e+00	
163	2.975699e-03	1.793663e+00	1.793731e+00	1.523082e+00	
164	2.995699e-03	1.793651e+00	1.793720e+00	1.523078e+00	
165	3.015699e-03	1.793662e+00	1.793730e+00	1.523075e+00	
166	3.035699e-03	1.793651e+00	1.793721e+00	1.523071e+00	
167	3.055699e-03	1.793662e+00	1.793730e+00	1.523067e+00	
168	3.075699e-03	1.793652e+00	1.793721e+00	1.523063e+00	
169	3.095699e-03	1.793661e+00	1.793729e+00	1.523059e+00	
170	3.115699e-03	1.793652e+00	1.793722e+00	1.523056e+00	

Index   time            v(vu1)          v(vu3)          v(reset_hold)   
--------------------------------------------------------------------------------
171	3.135699e-03	1.793661e+00	1.793729e+00	1.523052e+00	
172	3.155699e-03	1.793652e+00	1.793722e+00	1.523048e+00	
173	3.175699e-03	1.793661e+00	1.793729e+00	1.523044e+00	
174	3.195699e-03	1.793653e+00	1.793722e+00	1.523040e+00	
175	3.215699e-03	1.793660e+00	1.793728e+00	1.523037e+00	
176	3.235699e-03	1.793653e+00	1.793723e+00	1.523033e+00	
177	3.255699e-03	1.793660e+00	1.793728e+00	1.523029e+00	
178	3.275699e-03	1.793653e+00	1.793723e+00	1.523025e+00	
179	3.295699e-03	1.793660e+00	1.793728e+00	1.523022e+00	
180	3.315699e-03	1.793654e+00	1.793723e+00	1.523018e+00	
181	3.335699e-03	1.793659e+00	1.793728e+00	1.523014e+00	
182	3.355699e-03	1.793654e+00	1.793723e+00	1.523011e+00	
183	3.375699e-03	1.793659e+00	1.793727e+00	1.523007e+00	
184	3.395699e-03	1.793654e+00	1.793724e+00	1.523003e+00	
185	3.415699e-03	1.793659e+00	1.793727e+00	1.522999e+00	
186	3.435699e-03	1.793654e+00	1.793724e+00	1.522996e+00	
187	3.455699e-03	1.793659e+00	1.793727e+00	1.522992e+00	
188	3.475699e-03	1.793655e+00	1.793724e+00	1.522988e+00	
189	3.495699e-03	1.793659e+00	1.793727e+00	1.522985e+00	
190	3.515699e-03	1.793655e+00	1.793724e+00	1.522981e+00	
191	3.535699e-03	1.793658e+00	1.793727e+00	1.522977e+00	
192	3.555699e-03	1.793655e+00	1.793724e+00	1.522974e+00	
193	3.575699e-03	1.793658e+00	1.793727e+00	1.522970e+00	
194	3.595699e-03	1.793655e+00	1.793724e+00	1.522966e+00	
195	3.615699e-03	1.793658e+00	1.793726e+00	1.522963e+00	
196	3.635699e-03	1.793655e+00	1.793724e+00	1.522959e+00	
197	3.655699e-03	1.793658e+00	1.793726e+00	1.522955e+00	
198	3.675699e-03	1.793655e+00	1.793725e+00	1.522952e+00	
199	3.695699e-03	1.793658e+00	1.793726e+00	1.522948e+00	
200	3.715699e-03	1.793655e+00	1.793725e+00	1.522944e+00	
201	3.735699e-03	1.793658e+00	1.793726e+00	1.522941e+00	
202	3.755699e-03	1.793655e+00	1.793725e+00	1.522937e+00	
203	3.775699e-03	1.793658e+00	1.793726e+00	1.522933e+00	
204	3.795699e-03	1.793656e+00	1.793725e+00	1.522930e+00	
205	3.815699e-03	1.793658e+00	1.793726e+00	1.522926e+00	
206	3.835699e-03	1.793656e+00	1.793725e+00	1.522923e+00	
207	3.855699e-03	1.793658e+00	1.793726e+00	1.522919e+00	
208	3.875699e-03	1.793656e+00	1.793725e+00	1.522915e+00	
209	3.895699e-03	1.793658e+00	1.793726e+00	1.522912e+00	
210	3.915699e-03	1.793656e+00	1.793725e+00	1.522908e+00	
211	3.935699e-03	1.793658e+00	1.793726e+00	1.522905e+00	
212	3.955699e-03	1.793656e+00	1.793725e+00	1.522901e+00	
213	3.975699e-03	1.793658e+00	1.793726e+00	1.522897e+00	
214	3.995699e-03	1.793656e+00	1.793725e+00	1.522894e+00	
215	4.015699e-03	1.793657e+00	1.793726e+00	1.522890e+00	
216	4.035699e-03	1.793656e+00	1.793725e+00	1.522887e+00	
217	4.055699e-03	1.793657e+00	1.793726e+00	1.522883e+00	
218	4.075699e-03	1.793656e+00	1.793725e+00	1.522880e+00	
219	4.095699e-03	1.793657e+00	1.793726e+00	1.522876e+00	
220	4.115699e-03	1.793656e+00	1.793725e+00	1.522872e+00	
221	4.135699e-03	1.793657e+00	1.793726e+00	1.522869e+00	
222	4.155699e-03	1.793656e+00	1.793725e+00	1.522865e+00	
223	4.175699e-03	1.793657e+00	1.793726e+00	1.522862e+00	
224	4.195699e-03	1.793656e+00	1.793725e+00	1.522858e+00	
225	4.215699e-03	1.793657e+00	1.793726e+00	1.522855e+00	
226	4.235699e-03	1.793656e+00	1.793725e+00	1.522851e+00	
227	4.255699e-03	1.793657e+00	1.793726e+00	1.522848e+00	
228	4.275699e-03	1.793656e+00	1.793725e+00	1.522844e+00	

Index   time            v(vu1)          v(vu3)          v(reset_hold)   
--------------------------------------------------------------------------------
229	4.295699e-03	1.793657e+00	1.793726e+00	1.522841e+00	
230	4.315699e-03	1.793656e+00	1.793725e+00	1.522837e+00	
231	4.335699e-03	1.793657e+00	1.793726e+00	1.522834e+00	
232	4.355699e-03	1.793656e+00	1.793725e+00	1.522830e+00	
233	4.375699e-03	1.793657e+00	1.793726e+00	1.522827e+00	
234	4.395699e-03	1.793656e+00	1.793725e+00	1.522823e+00	
235	4.415699e-03	1.793657e+00	1.793726e+00	1.522820e+00	
236	4.435699e-03	1.793656e+00	1.793725e+00	1.522816e+00	
237	4.455699e-03	1.793657e+00	1.793726e+00	1.522813e+00	
238	4.475699e-03	1.793656e+00	1.793725e+00	1.522809e+00	
239	4.495699e-03	1.793657e+00	1.793726e+00	1.522806e+00	
240	4.515699e-03	1.793656e+00	1.793725e+00	1.522803e+00	
241	4.535699e-03	1.793657e+00	1.793726e+00	1.522799e+00	
242	4.555699e-03	1.793656e+00	1.793725e+00	1.522796e+00	
243	4.575699e-03	1.793657e+00	1.793726e+00	1.522792e+00	
244	4.595699e-03	1.793656e+00	1.793725e+00	1.522789e+00	
245	4.615699e-03	1.793657e+00	1.793726e+00	1.522785e+00	
246	4.635699e-03	1.793656e+00	1.793725e+00	1.522782e+00	
247	4.655699e-03	1.793657e+00	1.793726e+00	1.522778e+00	
248	4.675699e-03	1.793656e+00	1.793725e+00	1.522775e+00	
249	4.695699e-03	1.793657e+00	1.793726e+00	1.522772e+00	
250	4.715699e-03	1.793656e+00	1.793725e+00	1.522768e+00	
251	4.735699e-03	1.793657e+00	1.793726e+00	1.522765e+00	
252	4.755699e-03	1.793656e+00	1.793725e+00	1.522761e+00	
253	4.775699e-03	1.793657e+00	1.793725e+00	1.522758e+00	
254	4.795699e-03	1.793656e+00	1.793725e+00	1.522755e+00	
255	4.815699e-03	1.793657e+00	1.793725e+00	1.522751e+00	
256	4.835699e-03	1.793656e+00	1.793725e+00	1.522748e+00	
257	4.855699e-03	1.793657e+00	1.793725e+00	1.522744e+00	
258	4.875699e-03	1.793656e+00	1.793725e+00	1.522741e+00	
259	4.895699e-03	1.793657e+00	1.793725e+00	1.522738e+00	
260	4.915699e-03	1.793656e+00	1.793725e+00	1.522734e+00	
261	4.935699e-03	1.793657e+00	1.793725e+00	1.522731e+00	
262	4.955699e-03	1.793656e+00	1.793725e+00	1.522728e+00	
263	4.975699e-03	1.793657e+00	1.793725e+00	1.522724e+00	
264	4.995699e-03	1.793656e+00	1.793725e+00	1.522721e+00	
265	5.015699e-03	1.793657e+00	1.793725e+00	1.522718e+00	
266	5.035699e-03	1.793656e+00	1.793725e+00	1.522714e+00	
267	5.055699e-03	1.793657e+00	1.793725e+00	1.522711e+00	
268	5.075699e-03	1.793656e+00	1.793725e+00	1.522708e+00	
269	5.095699e-03	1.793657e+00	1.793725e+00	1.522704e+00	
270	5.115699e-03	1.793656e+00	1.793725e+00	1.522701e+00	
271	5.135699e-03	1.793657e+00	1.793725e+00	1.522698e+00	
272	5.155699e-03	1.793656e+00	1.793725e+00	1.522694e+00	
273	5.175699e-03	1.793657e+00	1.793725e+00	1.522691e+00	
274	5.195699e-03	1.793656e+00	1.793725e+00	1.522688e+00	
275	5.215699e-03	1.793657e+00	1.793725e+00	1.522684e+00	
276	5.235699e-03	1.793656e+00	1.793725e+00	1.522681e+00	
277	5.255699e-03	1.793657e+00	1.793725e+00	1.522678e+00	
278	5.275699e-03	1.793656e+00	1.793725e+00	1.522675e+00	
279	5.295699e-03	1.793657e+00	1.793725e+00	1.522671e+00	
280	5.315699e-03	1.793656e+00	1.793725e+00	1.522668e+00	
281	5.335699e-03	1.793657e+00	1.793725e+00	1.522665e+00	
282	5.355699e-03	1.793656e+00	1.793725e+00	1.522661e+00	
283	5.375699e-03	1.793657e+00	1.793725e+00	1.522658e+00	
284	5.395699e-03	1.793656e+00	1.793725e+00	1.522655e+00	
285	5.415699e-03	1.793657e+00	1.793725e+00	1.522652e+00	
286	5.435699e-03	1.793656e+00	1.793725e+00	1.522648e+00	

Index   time            v(vu1)          v(vu3)          v(reset_hold)   
--------------------------------------------------------------------------------
287	5.455699e-03	1.793657e+00	1.793725e+00	1.522645e+00	
288	5.475699e-03	1.793656e+00	1.793725e+00	1.522642e+00	
289	5.495699e-03	1.793657e+00	1.793725e+00	1.522639e+00	
290	5.515699e-03	1.793656e+00	1.793725e+00	1.522635e+00	
291	5.535699e-03	1.793657e+00	1.793725e+00	1.522632e+00	
292	5.555699e-03	1.793656e+00	1.793725e+00	1.522629e+00	
293	5.575699e-03	1.793657e+00	1.793725e+00	1.522626e+00	
294	5.595699e-03	1.793656e+00	1.793725e+00	1.522623e+00	
295	5.615699e-03	1.793657e+00	1.793725e+00	1.522619e+00	
296	5.635699e-03	1.793656e+00	1.793725e+00	1.522616e+00	
297	5.655699e-03	1.793657e+00	1.793725e+00	1.522613e+00	
298	5.675699e-03	1.793656e+00	1.793725e+00	1.522610e+00	
299	5.695699e-03	1.793657e+00	1.793725e+00	1.522607e+00	
300	5.715699e-03	1.793656e+00	1.793725e+00	1.522603e+00	
301	5.735699e-03	1.793657e+00	1.793725e+00	1.522600e+00	
302	5.755699e-03	1.793656e+00	1.793725e+00	1.522597e+00	
303	5.775699e-03	1.793657e+00	1.793725e+00	1.522594e+00	
304	5.795699e-03	1.793656e+00	1.793725e+00	1.522591e+00	
305	5.815699e-03	1.793657e+00	1.793725e+00	1.522587e+00	
306	5.835699e-03	1.793656e+00	1.793725e+00	1.522584e+00	
307	5.855699e-03	1.793657e+00	1.793725e+00	1.522581e+00	
308	5.875699e-03	1.793656e+00	1.793725e+00	1.522578e+00	
309	5.895699e-03	1.793657e+00	1.793725e+00	1.522575e+00	
310	5.915699e-03	1.793656e+00	1.793725e+00	1.522572e+00	
311	5.935699e-03	1.793657e+00	1.793725e+00	1.522568e+00	
312	5.955699e-03	1.793656e+00	1.793725e+00	1.522565e+00	
313	5.975699e-03	1.793657e+00	1.793725e+00	1.522562e+00	
314	5.995699e-03	1.793656e+00	1.793725e+00	1.522559e+00	
315	6.015699e-03	1.793657e+00	1.793725e+00	1.522556e+00	
316	6.035699e-03	1.793656e+00	1.793725e+00	1.522553e+00	
317	6.055699e-03	1.793657e+00	1.793725e+00	1.522550e+00	
318	6.075699e-03	1.793656e+00	1.793725e+00	1.522547e+00	
319	6.095699e-03	1.793657e+00	1.793725e+00	1.522543e+00	
320	6.115699e-03	1.793656e+00	1.793725e+00	1.522540e+00	
321	6.135699e-03	1.793657e+00	1.793725e+00	1.522537e+00	
322	6.155699e-03	1.793656e+00	1.793725e+00	1.522534e+00	
323	6.175699e-03	1.793657e+00	1.793725e+00	1.522531e+00	
324	6.195699e-03	1.793656e+00	1.793725e+00	1.522528e+00	
325	6.215699e-03	1.793657e+00	1.793725e+00	1.522525e+00	
326	6.235699e-03	1.793656e+00	1.793725e+00	1.522522e+00	
327	6.255699e-03	1.793657e+00	1.793725e+00	1.522519e+00	
328	6.275699e-03	1.793656e+00	1.793725e+00	1.522516e+00	
329	6.295699e-03	1.793657e+00	1.793725e+00	1.522513e+00	
330	6.315699e-03	1.793656e+00	1.793725e+00	1.522509e+00	
331	6.335699e-03	1.793657e+00	1.793725e+00	1.522506e+00	
332	6.355699e-03	1.793656e+00	1.793725e+00	1.522503e+00	
333	6.375699e-03	1.793657e+00	1.793725e+00	1.522500e+00	
334	6.395699e-03	1.793656e+00	1.793725e+00	1.522497e+00	
335	6.415699e-03	1.793657e+00	1.793725e+00	1.522494e+00	
336	6.435699e-03	1.793656e+00	1.793725e+00	1.522491e+00	
337	6.455699e-03	1.793657e+00	1.793725e+00	1.522488e+00	
338	6.475699e-03	1.793656e+00	1.793725e+00	1.522485e+00	
339	6.495699e-03	1.793657e+00	1.793725e+00	1.522482e+00	
340	6.515699e-03	1.793656e+00	1.793725e+00	1.522479e+00	
341	6.535699e-03	1.793657e+00	1.793725e+00	1.522476e+00	
342	6.555699e-03	1.793656e+00	1.793725e+00	1.522473e+00	
343	6.575699e-03	1.793657e+00	1.793725e+00	1.522470e+00	
344	6.595699e-03	1.793656e+00	1.793725e+00	1.522467e+00	

Index   time            v(vu1)          v(vu3)          v(reset_hold)   
--------------------------------------------------------------------------------
345	6.615699e-03	1.793657e+00	1.793725e+00	1.522464e+00	
346	6.635699e-03	1.793656e+00	1.793725e+00	1.522461e+00	
347	6.655699e-03	1.793657e+00	1.793725e+00	1.522458e+00	
348	6.675699e-03	1.793656e+00	1.793725e+00	1.522455e+00	
349	6.695699e-03	1.793657e+00	1.793725e+00	1.522452e+00	
350	6.715699e-03	1.793656e+00	1.793725e+00	1.522449e+00	
351	6.735699e-03	1.793657e+00	1.793725e+00	1.522446e+00	
352	6.755699e-03	1.793657e+00	1.793725e+00	1.522443e+00	
353	6.775699e-03	1.793657e+00	1.793725e+00	1.522440e+00	
354	6.795699e-03	1.793657e+00	1.793725e+00	1.522437e+00	
355	6.815699e-03	1.793657e+00	1.793725e+00	1.522434e+00	
356	6.835699e-03	1.793657e+00	1.793725e+00	1.522431e+00	
357	6.855699e-03	1.793657e+00	1.793725e+00	1.522428e+00	
358	6.875699e-03	1.793657e+00	1.793725e+00	1.522425e+00	
359	6.895699e-03	1.793657e+00	1.793725e+00	1.522422e+00	
360	6.915699e-03	1.793657e+00	1.793725e+00	1.522419e+00	
361	6.935699e-03	1.793657e+00	1.793725e+00	1.522416e+00	
362	6.955699e-03	1.793657e+00	1.793725e+00	1.522413e+00	
363	6.975699e-03	1.793657e+00	1.793725e+00	1.522410e+00	
364	6.995699e-03	1.793657e+00	1.793725e+00	1.522407e+00	
365	7.015699e-03	1.793657e+00	1.793725e+00	1.522405e+00	
366	7.035699e-03	1.793657e+00	1.793725e+00	1.522402e+00	
367	7.055699e-03	1.793657e+00	1.793725e+00	1.522399e+00	
368	7.075699e-03	1.793657e+00	1.793725e+00	1.522396e+00	
369	7.095699e-03	1.793657e+00	1.793725e+00	1.522393e+00	
370	7.115699e-03	1.793657e+00	1.793725e+00	1.522390e+00	
371	7.135699e-03	1.793657e+00	1.793725e+00	1.522387e+00	
372	7.155699e-03	1.793657e+00	1.793725e+00	1.522384e+00	
373	7.175699e-03	1.793657e+00	1.793725e+00	1.522381e+00	
374	7.195699e-03	1.793657e+00	1.793725e+00	1.522378e+00	
375	7.215699e-03	1.793657e+00	1.793725e+00	1.522375e+00	
376	7.235699e-03	1.793657e+00	1.793725e+00	1.522373e+00	
377	7.255699e-03	1.793657e+00	1.793725e+00	1.522370e+00	
378	7.275699e-03	1.793657e+00	1.793725e+00	1.522367e+00	
379	7.295699e-03	1.793657e+00	1.793725e+00	1.522364e+00	
380	7.315699e-03	1.793657e+00	1.793725e+00	1.522361e+00	
381	7.335699e-03	1.793657e+00	1.793725e+00	1.522358e+00	
382	7.355699e-03	1.793657e+00	1.793725e+00	1.522355e+00	
383	7.375699e-03	1.793657e+00	1.793725e+00	1.522352e+00	
384	7.395699e-03	1.793657e+00	1.793725e+00	1.522350e+00	
385	7.415699e-03	1.793657e+00	1.793725e+00	1.522347e+00	
386	7.435699e-03	1.793657e+00	1.793725e+00	1.522344e+00	
387	7.455699e-03	1.793657e+00	1.793725e+00	1.522341e+00	
388	7.475699e-03	1.793657e+00	1.793725e+00	1.522338e+00	
389	7.495699e-03	1.793657e+00	1.793725e+00	1.522335e+00	
390	7.515699e-03	1.793657e+00	1.793725e+00	1.522332e+00	
391	7.535699e-03	1.793657e+00	1.793725e+00	1.522330e+00	
392	7.555699e-03	1.793657e+00	1.793725e+00	1.522327e+00	
393	7.575699e-03	1.793657e+00	1.793725e+00	1.522324e+00	
394	7.595699e-03	1.793657e+00	1.793725e+00	1.522321e+00	
395	7.615699e-03	1.793657e+00	1.793725e+00	1.522318e+00	
396	7.635699e-03	1.793657e+00	1.793725e+00	1.522315e+00	
397	7.655699e-03	1.793657e+00	1.793725e+00	1.522313e+00	
398	7.675699e-03	1.793657e+00	1.793725e+00	1.522310e+00	
399	7.695699e-03	1.793657e+00	1.793725e+00	1.522307e+00	
400	7.715699e-03	1.793657e+00	1.793725e+00	1.522304e+00	
401	7.735699e-03	1.793657e+00	1.793725e+00	1.522301e+00	
402	7.755699e-03	1.793657e+00	1.793725e+00	1.522299e+00	

Index   time            v(vu1)          v(vu3)          v(reset_hold)   
--------------------------------------------------------------------------------
403	7.775699e-03	1.793657e+00	1.793725e+00	1.522296e+00	
404	7.795699e-03	1.793657e+00	1.793725e+00	1.522293e+00	
405	7.815699e-03	1.793657e+00	1.793725e+00	1.522290e+00	
406	7.835699e-03	1.793657e+00	1.793725e+00	1.522288e+00	
407	7.855699e-03	1.793657e+00	1.793725e+00	1.522285e+00	
408	7.875699e-03	1.793657e+00	1.793725e+00	1.522282e+00	
409	7.895699e-03	1.793657e+00	1.793725e+00	1.522279e+00	
410	7.915699e-03	1.793657e+00	1.793725e+00	1.522276e+00	
411	7.935699e-03	1.793657e+00	1.793725e+00	1.522274e+00	
412	7.955699e-03	1.793657e+00	1.793725e+00	1.522271e+00	
413	7.975699e-03	1.793657e+00	1.793725e+00	1.522268e+00	
414	7.995699e-03	1.793657e+00	1.793725e+00	1.522265e+00	
415	8.015699e-03	1.793657e+00	1.793725e+00	1.522263e+00	
416	8.035699e-03	1.793657e+00	1.793725e+00	1.522260e+00	
417	8.055699e-03	1.793657e+00	1.793725e+00	1.522257e+00	
418	8.075699e-03	1.793657e+00	1.793725e+00	1.522254e+00	
419	8.095699e-03	1.793657e+00	1.793725e+00	1.522252e+00	
420	8.115699e-03	1.793657e+00	1.793725e+00	1.522249e+00	
421	8.135699e-03	1.793657e+00	1.793725e+00	1.522246e+00	
422	8.155699e-03	1.793657e+00	1.793725e+00	1.522244e+00	
423	8.175699e-03	1.793657e+00	1.793725e+00	1.522241e+00	
424	8.195699e-03	1.793657e+00	1.793725e+00	1.522238e+00	
425	8.215699e-03	1.793657e+00	1.793725e+00	1.522235e+00	
426	8.235699e-03	1.793657e+00	1.793725e+00	1.522233e+00	
427	8.255699e-03	1.793657e+00	1.793725e+00	1.522230e+00	
428	8.275699e-03	1.793657e+00	1.793725e+00	1.522227e+00	
429	8.295699e-03	1.793657e+00	1.793725e+00	1.522225e+00	
430	8.315699e-03	1.793657e+00	1.793725e+00	1.522222e+00	
431	8.335699e-03	1.793657e+00	1.793725e+00	1.522219e+00	
432	8.355699e-03	1.793657e+00	1.793725e+00	1.522217e+00	
433	8.375699e-03	1.793657e+00	1.793725e+00	1.522214e+00	
434	8.395699e-03	1.793657e+00	1.793725e+00	1.522211e+00	
435	8.415699e-03	1.793657e+00	1.793725e+00	1.522209e+00	
436	8.435699e-03	1.793657e+00	1.793725e+00	1.522206e+00	
437	8.455699e-03	1.793657e+00	1.793725e+00	1.522203e+00	
438	8.475699e-03	1.793657e+00	1.793725e+00	1.522201e+00	
439	8.495699e-03	1.793657e+00	1.793725e+00	1.522198e+00	
440	8.515699e-03	1.793657e+00	1.793725e+00	1.522195e+00	
441	8.535699e-03	1.793657e+00	1.793725e+00	1.522193e+00	
442	8.555699e-03	1.793657e+00	1.793725e+00	1.522190e+00	
443	8.575699e-03	1.793657e+00	1.793725e+00	1.522187e+00	
444	8.595699e-03	1.793657e+00	1.793725e+00	1.522185e+00	
445	8.615699e-03	1.793657e+00	1.793725e+00	1.522182e+00	
446	8.635699e-03	1.793657e+00	1.793725e+00	1.522179e+00	
447	8.655699e-03	1.793657e+00	1.793725e+00	1.522177e+00	
448	8.675699e-03	1.793657e+00	1.793725e+00	1.522174e+00	
449	8.695699e-03	1.793657e+00	1.793725e+00	1.522171e+00	
450	8.715699e-03	1.793657e+00	1.793725e+00	1.522169e+00	
451	8.735699e-03	1.793657e+00	1.793725e+00	1.522166e+00	
452	8.755699e-03	1.793657e+00	1.793725e+00	1.522164e+00	
453	8.775699e-03	1.793657e+00	1.793725e+00	1.522161e+00	
454	8.795699e-03	1.793657e+00	1.793725e+00	1.522158e+00	
455	8.815699e-03	1.793657e+00	1.793725e+00	1.522156e+00	
456	8.835699e-03	1.793657e+00	1.793725e+00	1.522153e+00	
457	8.855699e-03	1.793657e+00	1.793725e+00	1.522151e+00	
458	8.875699e-03	1.793657e+00	1.793725e+00	1.522148e+00	
459	8.895699e-03	1.793657e+00	1.793725e+00	1.522145e+00	
460	8.915699e-03	1.793657e+00	1.793725e+00	1.522143e+00	

Index   time            v(vu1)          v(vu3)          v(reset_hold)   
--------------------------------------------------------------------------------
461	8.935699e-03	1.793657e+00	1.793725e+00	1.522140e+00	
462	8.955699e-03	1.793657e+00	1.793725e+00	1.522138e+00	
463	8.975699e-03	1.793657e+00	1.793725e+00	1.522135e+00	
464	8.995699e-03	1.793657e+00	1.793725e+00	1.522132e+00	
465	9.015699e-03	1.793657e+00	1.793725e+00	1.522130e+00	
466	9.035699e-03	1.793657e+00	1.793725e+00	1.522127e+00	
467	9.055699e-03	1.793657e+00	1.793725e+00	1.522125e+00	
468	9.075699e-03	1.793657e+00	1.793725e+00	1.522122e+00	
469	9.095699e-03	1.793657e+00	1.793725e+00	1.522120e+00	
470	9.115699e-03	1.793657e+00	1.793725e+00	1.522117e+00	
471	9.135699e-03	1.793657e+00	1.793725e+00	1.522115e+00	
472	9.155699e-03	1.793657e+00	1.793725e+00	1.522112e+00	
473	9.175699e-03	1.793657e+00	1.793725e+00	1.522109e+00	
474	9.195699e-03	1.793657e+00	1.793725e+00	1.522107e+00	
475	9.215699e-03	1.793657e+00	1.793725e+00	1.522104e+00	
476	9.235699e-03	1.793657e+00	1.793725e+00	1.522102e+00	
477	9.255699e-03	1.793657e+00	1.793725e+00	1.522099e+00	
478	9.275699e-03	1.793657e+00	1.793725e+00	1.522097e+00	
479	9.295699e-03	1.793657e+00	1.793725e+00	1.522094e+00	
480	9.315699e-03	1.793657e+00	1.793725e+00	1.522092e+00	
481	9.335699e-03	1.793657e+00	1.793725e+00	1.522089e+00	
482	9.355699e-03	1.793657e+00	1.793725e+00	1.522087e+00	
483	9.375699e-03	1.793657e+00	1.793725e+00	1.522084e+00	
484	9.395699e-03	1.793657e+00	1.793725e+00	1.522082e+00	
485	9.415699e-03	1.793657e+00	1.793725e+00	1.522079e+00	
486	9.435699e-03	1.793657e+00	1.793725e+00	1.522077e+00	
487	9.455699e-03	1.793657e+00	1.793725e+00	1.522074e+00	
488	9.475699e-03	1.793657e+00	1.793725e+00	1.522072e+00	
489	9.495699e-03	1.793657e+00	1.793725e+00	1.522069e+00	
490	9.515699e-03	1.793657e+00	1.793725e+00	1.522067e+00	
491	9.535699e-03	1.793657e+00	1.793725e+00	1.522064e+00	
492	9.555699e-03	1.793657e+00	1.793725e+00	1.522062e+00	
493	9.575699e-03	1.793657e+00	1.793725e+00	1.522059e+00	
494	9.595699e-03	1.793657e+00	1.793725e+00	1.522057e+00	
495	9.615699e-03	1.793657e+00	1.793725e+00	1.522054e+00	
496	9.635699e-03	1.793657e+00	1.793725e+00	1.522052e+00	
497	9.655699e-03	1.793657e+00	1.793725e+00	1.522049e+00	
498	9.675699e-03	1.793657e+00	1.793725e+00	1.522047e+00	
499	9.695699e-03	1.793657e+00	1.793725e+00	1.522044e+00	
500	9.715699e-03	1.793657e+00	1.793725e+00	1.522042e+00	
501	9.735699e-03	1.793657e+00	1.793725e+00	1.522040e+00	
502	9.755699e-03	1.793657e+00	1.793725e+00	1.522037e+00	
503	9.775699e-03	1.793657e+00	1.793725e+00	1.522035e+00	
504	9.795699e-03	1.793657e+00	1.793725e+00	1.522032e+00	
505	9.815699e-03	1.793657e+00	1.793725e+00	1.522030e+00	
506	9.835699e-03	1.793657e+00	1.793725e+00	1.522027e+00	
507	9.855699e-03	1.793657e+00	1.793725e+00	1.522025e+00	
508	9.875699e-03	1.793657e+00	1.793725e+00	1.522022e+00	
509	9.895699e-03	1.793657e+00	1.793725e+00	1.522020e+00	
510	9.915699e-03	1.793657e+00	1.793725e+00	1.522018e+00	
511	9.935699e-03	1.793657e+00	1.793725e+00	1.522015e+00	
512	9.955699e-03	1.793657e+00	1.793725e+00	1.522013e+00	
513	9.975699e-03	1.793657e+00	1.793725e+00	1.522010e+00	
514	9.995699e-03	1.793657e+00	1.793725e+00	1.522008e+00	
515	1.001570e-02	1.793657e+00	1.793725e+00	1.522006e+00	
516	1.003570e-02	1.793657e+00	1.793725e+00	1.522003e+00	
517	1.005570e-02	1.793657e+00	1.793725e+00	1.522001e+00	
518	1.007570e-02	1.793657e+00	1.793725e+00	1.521998e+00	

Index   time            v(vu1)          v(vu3)          v(reset_hold)   
--------------------------------------------------------------------------------
519	1.009570e-02	1.793657e+00	1.793725e+00	1.521996e+00	
520	1.011570e-02	1.793657e+00	1.793725e+00	1.521994e+00	
521	1.013570e-02	1.793657e+00	1.793725e+00	1.521991e+00	
522	1.015570e-02	1.793657e+00	1.793725e+00	1.521989e+00	
523	1.017570e-02	1.793657e+00	1.793725e+00	1.521986e+00	
524	1.019570e-02	1.793657e+00	1.793725e+00	1.521984e+00	
525	1.021570e-02	1.793657e+00	1.793725e+00	1.521982e+00	
526	1.023570e-02	1.793657e+00	1.793725e+00	1.521979e+00	
527	1.025570e-02	1.793657e+00	1.793725e+00	1.521977e+00	
528	1.027570e-02	1.793657e+00	1.793725e+00	1.521974e+00	
529	1.029570e-02	1.793657e+00	1.793725e+00	1.521972e+00	
530	1.031570e-02	1.793657e+00	1.793725e+00	1.521970e+00	
531	1.033570e-02	1.793657e+00	1.793725e+00	1.521967e+00	
532	1.035570e-02	1.793657e+00	1.793725e+00	1.521965e+00	
533	1.037570e-02	1.793657e+00	1.793725e+00	1.521963e+00	
534	1.039570e-02	1.793657e+00	1.793725e+00	1.521960e+00	
535	1.041570e-02	1.793657e+00	1.793725e+00	1.521958e+00	
536	1.043570e-02	1.793657e+00	1.793725e+00	1.521956e+00	
537	1.045570e-02	1.793657e+00	1.793725e+00	1.521953e+00	
538	1.047570e-02	1.793657e+00	1.793725e+00	1.521951e+00	
539	1.049570e-02	1.793657e+00	1.793725e+00	1.521949e+00	
540	1.051570e-02	1.793657e+00	1.793725e+00	1.521946e+00	
541	1.053570e-02	1.793657e+00	1.793725e+00	1.521944e+00	
542	1.055570e-02	1.793657e+00	1.793725e+00	1.521942e+00	
543	1.057570e-02	1.793657e+00	1.793725e+00	1.521939e+00	
544	1.059570e-02	1.793657e+00	1.793725e+00	1.521937e+00	
545	1.061570e-02	1.793657e+00	1.793725e+00	1.521935e+00	
546	1.063570e-02	1.793657e+00	1.793725e+00	1.521932e+00	
547	1.065570e-02	1.793657e+00	1.793725e+00	1.521930e+00	
548	1.067570e-02	1.793657e+00	1.793725e+00	1.521928e+00	
549	1.069570e-02	1.793657e+00	1.793725e+00	1.521925e+00	
550	1.071570e-02	1.793657e+00	1.793725e+00	1.521923e+00	
551	1.073570e-02	1.793657e+00	1.793725e+00	1.521921e+00	
552	1.075570e-02	1.793657e+00	1.793725e+00	1.521919e+00	
553	1.077570e-02	1.793657e+00	1.793725e+00	1.521916e+00	
554	1.079570e-02	1.793657e+00	1.793725e+00	1.521914e+00	
555	1.081570e-02	1.793657e+00	1.793725e+00	1.521912e+00	
556	1.083570e-02	1.793657e+00	1.793725e+00	1.521909e+00	
557	1.085570e-02	1.793657e+00	1.793725e+00	1.521907e+00	
558	1.087570e-02	1.793657e+00	1.793725e+00	1.521905e+00	
559	1.089570e-02	1.793657e+00	1.793725e+00	1.521903e+00	
560	1.091570e-02	1.793657e+00	1.793725e+00	1.521900e+00	
561	1.093570e-02	1.793657e+00	1.793725e+00	1.521898e+00	
562	1.095570e-02	1.793657e+00	1.793725e+00	1.521896e+00	
563	1.097570e-02	1.793657e+00	1.793725e+00	1.521894e+00	
564	1.099570e-02	1.793657e+00	1.793725e+00	1.521891e+00	
565	1.101570e-02	1.793657e+00	1.793725e+00	1.521889e+00	
566	1.103570e-02	1.793657e+00	1.793725e+00	1.521887e+00	
567	1.105570e-02	1.793657e+00	1.793725e+00	1.521885e+00	
568	1.107570e-02	1.793657e+00	1.793725e+00	1.521882e+00	
569	1.109570e-02	1.793657e+00	1.793725e+00	1.521880e+00	
570	1.111570e-02	1.793657e+00	1.793725e+00	1.521878e+00	
571	1.113570e-02	1.793657e+00	1.793725e+00	1.521876e+00	
572	1.115570e-02	1.793657e+00	1.793725e+00	1.521873e+00	
573	1.117570e-02	1.793657e+00	1.793725e+00	1.521871e+00	
574	1.119570e-02	1.793657e+00	1.793725e+00	1.521869e+00	
575	1.121570e-02	1.793657e+00	1.793725e+00	1.521867e+00	
576	1.123570e-02	1.793657e+00	1.793725e+00	1.521864e+00	

Index   time            v(vu1)          v(vu3)          v(reset_hold)   
--------------------------------------------------------------------------------
577	1.125570e-02	1.793657e+00	1.793725e+00	1.521862e+00	
578	1.127570e-02	1.793657e+00	1.793725e+00	1.521860e+00	
579	1.129570e-02	1.793657e+00	1.793725e+00	1.521858e+00	
580	1.131570e-02	1.793657e+00	1.793725e+00	1.521856e+00	
581	1.133570e-02	1.793657e+00	1.793725e+00	1.521853e+00	
582	1.135570e-02	1.793657e+00	1.793725e+00	1.521851e+00	
583	1.137570e-02	1.793657e+00	1.793725e+00	1.521849e+00	
584	1.139570e-02	1.793657e+00	1.793725e+00	1.521847e+00	
585	1.141570e-02	1.793657e+00	1.793725e+00	1.521845e+00	
586	1.143570e-02	1.793657e+00	1.793725e+00	1.521842e+00	
587	1.145570e-02	1.793657e+00	1.793725e+00	1.521840e+00	
588	1.147570e-02	1.793657e+00	1.793725e+00	1.521838e+00	
589	1.149570e-02	1.793657e+00	1.793725e+00	1.521836e+00	
590	1.151570e-02	1.793657e+00	1.793725e+00	1.521834e+00	
591	1.153570e-02	1.793657e+00	1.793725e+00	1.521831e+00	
592	1.155570e-02	1.793657e+00	1.793725e+00	1.521829e+00	
593	1.157570e-02	1.793657e+00	1.793725e+00	1.521827e+00	
594	1.159570e-02	1.793657e+00	1.793725e+00	1.521825e+00	
595	1.161570e-02	1.793657e+00	1.793725e+00	1.521823e+00	
596	1.163570e-02	1.793657e+00	1.793725e+00	1.521821e+00	
597	1.165570e-02	1.793657e+00	1.793725e+00	1.521818e+00	
598	1.167570e-02	1.793657e+00	1.793725e+00	1.521816e+00	
599	1.169570e-02	1.793657e+00	1.793725e+00	1.521814e+00	
600	1.171570e-02	1.793657e+00	1.793725e+00	1.521812e+00	
601	1.173570e-02	1.793657e+00	1.793725e+00	1.521810e+00	
602	1.175570e-02	1.793657e+00	1.793725e+00	1.521808e+00	
603	1.177570e-02	1.793657e+00	1.793725e+00	1.521805e+00	
604	1.179570e-02	1.793657e+00	1.793725e+00	1.521803e+00	
605	1.181570e-02	1.793657e+00	1.793725e+00	1.521801e+00	
606	1.183570e-02	1.793657e+00	1.793725e+00	1.521799e+00	
607	1.185570e-02	1.793657e+00	1.793725e+00	1.521797e+00	
608	1.187570e-02	1.793657e+00	1.793725e+00	1.521795e+00	
609	1.189570e-02	1.793657e+00	1.793725e+00	1.521793e+00	
610	1.191570e-02	1.793657e+00	1.793725e+00	1.521791e+00	
611	1.193570e-02	1.793657e+00	1.793725e+00	1.521788e+00	
612	1.195570e-02	1.793657e+00	1.793725e+00	1.521786e+00	
613	1.197570e-02	1.793657e+00	1.793725e+00	1.521784e+00	
614	1.199570e-02	1.793657e+00	1.793725e+00	1.521782e+00	
615	1.200000e-02	1.793657e+00	1.793725e+00	1.521782e+00	

                            tb001-ga144-test-bringup
                            Transient Analysis  Sat Jun 13 16:45:40  2026
--------------------------------------------------------------------------------
Index   time            v(gcore)        v(gio)          v(gan)          
--------------------------------------------------------------------------------
0	0.000000e+00	5.787345e-04	5.787345e-04	5.787345e-04	
1	2.000000e-07	5.787345e-04	5.787345e-04	5.787345e-04	
2	4.000000e-07	5.787345e-04	5.787345e-04	5.787345e-04	
3	8.000000e-07	5.787345e-04	5.787345e-04	5.787345e-04	
4	1.600000e-06	5.787345e-04	5.787345e-04	5.787345e-04	
5	3.200000e-06	5.787345e-04	5.787345e-04	5.787345e-04	
6	6.400000e-06	5.787345e-04	5.787345e-04	5.787345e-04	
7	1.280000e-05	5.787345e-04	5.787345e-04	5.787345e-04	
8	2.560000e-05	5.787345e-04	5.787345e-04	5.787345e-04	
9	4.560000e-05	5.787345e-04	5.787345e-04	5.787345e-04	
10	6.560000e-05	5.787345e-04	5.787345e-04	5.787345e-04	
11	8.560000e-05	5.787345e-04	5.787345e-04	5.787345e-04	
12	1.056000e-04	5.787345e-04	5.787345e-04	5.787345e-04	
13	1.256000e-04	5.787345e-04	5.787345e-04	5.787345e-04	
14	1.456000e-04	5.787345e-04	5.787345e-04	5.787345e-04	
15	1.656000e-04	5.787345e-04	5.787345e-04	5.787345e-04	
16	1.856000e-04	5.787345e-04	5.787345e-04	5.787345e-04	
17	2.056000e-04	5.787345e-04	5.787345e-04	5.787345e-04	
18	2.256000e-04	5.787345e-04	5.787345e-04	5.787345e-04	
19	2.456000e-04	5.787345e-04	5.787345e-04	5.787345e-04	
20	2.656000e-04	5.787345e-04	5.787345e-04	5.787345e-04	
21	2.856000e-04	5.787345e-04	5.787345e-04	5.787345e-04	
22	3.056000e-04	5.787345e-04	5.787345e-04	5.787345e-04	
23	3.256000e-04	5.787345e-04	5.787345e-04	5.787345e-04	
24	3.456000e-04	5.787345e-04	5.787345e-04	5.787345e-04	
25	3.656000e-04	5.787345e-04	5.787345e-04	5.787345e-04	
26	3.856000e-04	5.787345e-04	5.787345e-04	5.787345e-04	
27	4.056000e-04	5.787345e-04	5.787345e-04	5.787345e-04	
28	4.256000e-04	5.787345e-04	5.787345e-04	5.787345e-04	
29	4.456000e-04	5.787345e-04	5.787345e-04	5.787345e-04	
30	4.656000e-04	5.787345e-04	5.787345e-04	5.787345e-04	
31	4.856000e-04	5.787345e-04	5.787345e-04	5.787345e-04	
32	5.056000e-04	5.787345e-04	5.787345e-04	5.787345e-04	
33	5.256000e-04	5.787345e-04	5.787345e-04	5.787345e-04	
34	5.456000e-04	5.787345e-04	5.787345e-04	5.787345e-04	
35	5.656000e-04	5.787345e-04	5.787345e-04	5.787345e-04	
36	5.856000e-04	5.787345e-04	5.787345e-04	5.787345e-04	
37	6.056000e-04	5.787345e-04	5.787345e-04	5.787345e-04	
38	6.256000e-04	5.787345e-04	5.787345e-04	5.787345e-04	
39	6.456000e-04	5.787345e-04	5.787345e-04	5.787345e-04	
40	6.656000e-04	5.787345e-04	5.787345e-04	5.787345e-04	
41	6.856000e-04	5.787345e-04	5.787345e-04	5.787345e-04	
42	7.056000e-04	5.787345e-04	5.787345e-04	5.787345e-04	
43	7.256000e-04	5.787345e-04	5.787345e-04	5.787345e-04	
44	7.456000e-04	5.787345e-04	5.787345e-04	5.787345e-04	
45	7.656000e-04	5.787345e-04	5.787345e-04	5.787345e-04	
46	7.856000e-04	5.787345e-04	5.787345e-04	5.787345e-04	
47	8.056000e-04	5.787345e-04	5.787345e-04	5.787345e-04	
48	8.256000e-04	5.787345e-04	5.787345e-04	5.787345e-04	
49	8.456000e-04	5.787345e-04	5.787345e-04	5.787345e-04	
50	8.656000e-04	5.787345e-04	5.787345e-04	5.787345e-04	
51	8.856000e-04	5.787345e-04	5.787345e-04	5.787345e-04	
52	9.056000e-04	5.787345e-04	5.787345e-04	5.787345e-04	
53	9.256000e-04	5.787345e-04	5.787345e-04	5.787345e-04	
54	9.456000e-04	5.787345e-04	5.787345e-04	5.787345e-04	

Index   time            v(gcore)        v(gio)          v(gan)          
--------------------------------------------------------------------------------
55	9.656000e-04	5.787345e-04	5.787345e-04	5.787345e-04	
56	9.856000e-04	5.787345e-04	5.787345e-04	5.787345e-04	
57	1.000000e-03	5.787345e-04	5.787345e-04	5.787345e-04	
58	1.002000e-03	6.605944e-04	6.605944e-04	6.605944e-04	
59	1.006000e-03	9.282520e-04	9.282520e-04	9.282520e-04	
60	1.014000e-03	5.941764e-03	5.941764e-03	5.941764e-03	
61	1.020000e-03	3.300000e+00	3.300000e+00	3.300000e+00	
62	1.021407e-03	3.300000e+00	3.300000e+00	3.300000e+00	
63	1.024222e-03	3.300000e+00	3.300000e+00	3.300000e+00	
64	1.029275e-03	3.300000e+00	3.300000e+00	3.300000e+00	
65	1.035175e-03	3.300000e+00	3.300000e+00	3.300000e+00	
66	1.042820e-03	3.300000e+00	3.300000e+00	3.300000e+00	
67	1.055699e-03	3.300000e+00	3.300000e+00	3.300000e+00	
68	1.075699e-03	3.300000e+00	3.300000e+00	3.300000e+00	
69	1.095699e-03	3.300000e+00	3.300000e+00	3.300000e+00	
70	1.115699e-03	3.300000e+00	3.300000e+00	3.300000e+00	
71	1.135699e-03	3.300000e+00	3.300000e+00	3.300000e+00	
72	1.155699e-03	3.300000e+00	3.300000e+00	3.300000e+00	
73	1.175699e-03	3.300000e+00	3.300000e+00	3.300000e+00	
74	1.195699e-03	3.300000e+00	3.300000e+00	3.300000e+00	
75	1.215699e-03	3.300000e+00	3.300000e+00	3.300000e+00	
76	1.235699e-03	3.300000e+00	3.300000e+00	3.300000e+00	
77	1.255699e-03	3.300000e+00	3.300000e+00	3.300000e+00	
78	1.275699e-03	3.300000e+00	3.300000e+00	3.300000e+00	
[...]
9	4.560000e-05	3.300000e+00	
10	6.560000e-05	3.300000e+00	
11	8.560000e-05	3.300000e+00	
12	1.056000e-04	3.300000e+00	
13	1.256000e-04	3.300000e+00	
14	1.456000e-04	3.300000e+00	
15	1.656000e-04	3.300000e+00	
16	1.856000e-04	3.300000e+00	
17	2.056000e-04	3.300000e+00	
18	2.256000e-04	3.300000e+00	
19	2.456000e-04	3.300000e+00	
20	2.656000e-04	3.300000e+00	
21	2.856000e-04	3.300000e+00	
22	3.056000e-04	3.300000e+00	
23	3.256000e-04	3.300000e+00	
24	3.456000e-04	3.300000e+00	
25	3.656000e-04	3.300000e+00	
26	3.856000e-04	3.300000e+00	
27	4.056000e-04	3.300000e+00	
28	4.256000e-04	3.300000e+00	
29	4.456000e-04	3.300000e+00	
30	4.656000e-04	3.300000e+00	
31	4.856000e-04	3.300000e+00	
32	5.056000e-04	3.300000e+00	
33	5.256000e-04	3.300000e+00	
34	5.456000e-04	3.300000e+00	
35	5.656000e-04	3.300000e+00	
36	5.856000e-04	3.300000e+00	
37	6.056000e-04	3.300000e+00	
38	6.256000e-04	3.300000e+00	
39	6.456000e-04	3.300000e+00	
40	6.656000e-04	3.300000e+00	
41	6.856000e-04	3.300000e+00	
42	7.056000e-04	3.300000e+00	
43	7.256000e-04	3.300000e+00	
44	7.456000e-04	3.300000e+00	
45	7.656000e-04	3.300000e+00	
46	7.856000e-04	3.300000e+00	
47	8.056000e-04	3.300000e+00	
48	8.256000e-04	3.300000e+00	
49	8.456000e-04	3.300000e+00	
50	8.656000e-04	3.300000e+00	
51	8.856000e-04	3.300000e+00	
52	9.056000e-04	3.300000e+00	
53	9.256000e-04	3.300000e+00	
54	9.456000e-04	3.300000e+00	

Index   time            v(disable)      
--------------------------------------------------------------------------------
55	9.656000e-04	3.300000e+00	
56	9.856000e-04	3.300000e+00	
57	1.000000e-03	3.300000e+00	
58	1.002000e-03	2.970000e+00	
59	1.006000e-03	2.310000e+00	
60	1.014000e-03	9.900000e-01	
61	1.020000e-03	0.000000e+00	
62	1.021407e-03	0.000000e+00	
63	1.024222e-03	0.000000e+00	
64	1.029275e-03	0.000000e+00	
65	1.035175e-03	0.000000e+00	
66	1.042820e-03	0.000000e+00	
67	1.055699e-03	0.000000e+00	
68	1.075699e-03	0.000000e+00	
69	1.095699e-03	0.000000e+00	
70	1.115699e-03	0.000000e+00	
71	1.135699e-03	0.000000e+00	
72	1.155699e-03	0.000000e+00	
73	1.175699e-03	0.000000e+00	
74	1.195699e-03	0.000000e+00	
75	1.215699e-03	0.000000e+00	
76	1.235699e-03	0.000000e+00	
77	1.255699e-03	0.000000e+00	
78	1.275699e-03	0.000000e+00	
79	1.295699e-03	0.000000e+00	
80	1.315699e-03	0.000000e+00	
81	1.335699e-03	0.000000e+00	
82	1.355699e-03	0.000000e+00	
83	1.375699e-03	0.000000e+00	
84	1.395699e-03	0.000000e+00	
85	1.415699e-03	0.000000e+00	
86	1.435699e-03	0.000000e+00	
87	1.455699e-03	0.000000e+00	
88	1.475699e-03	0.000000e+00	
89	1.495699e-03	0.000000e+00	
90	1.515699e-03	0.000000e+00	
91	1.535699e-03	0.000000e+00	
92	1.555699e-03	0.000000e+00	
93	1.575699e-03	0.000000e+00	
94	1.595699e-03	0.000000e+00	
95	1.615699e-03	0.000000e+00	
96	1.635699e-03	0.000000e+00	
97	1.655699e-03	0.000000e+00	
98	1.675699e-03	0.000000e+00	
99	1.695699e-03	0.000000e+00	
100	1.715699e-03	0.000000e+00	
101	1.735699e-03	0.000000e+00	
102	1.755699e-03	0.000000e+00	
103	1.775699e-03	0.000000e+00	
104	1.795699e-03	0.000000e+00	
105	1.815699e-03	0.000000e+00	
106	1.835699e-03	0.000000e+00	
107	1.855699e-03	0.000000e+00	
108	1.875699e-03	0.000000e+00	
109	1.895699e-03	0.000000e+00	
110	1.915699e-03	0.000000e+00	
111	1.935699e-03	0.000000e+00	
112	1.955699e-03	0.000000e+00	

Index   time            v(disable)      
--------------------------------------------------------------------------------
113	1.975699e-03	0.000000e+00	
114	1.995699e-03	0.000000e+00	
115	2.015699e-03	0.000000e+00	
116	2.035699e-03	0.000000e+00	
117	2.055699e-03	0.000000e+00	
118	2.075699e-03	0.000000e+00	
119	2.095699e-03	0.000000e+00	
120	2.115699e-03	0.000000e+00	
121	2.135699e-03	0.000000e+00	
122	2.155699e-03	0.000000e+00	
123	2.175699e-03	0.000000e+00	
124	2.195699e-03	0.000000e+00	
125	2.215699e-03	0.000000e+00	
126	2.235699e-03	0.000000e+00	
127	2.255699e-03	0.000000e+00	
128	2.275699e-03	0.000000e+00	
129	2.295699e-03	0.000000e+00	
130	2.315699e-03	0.000000e+00	
131	2.335699e-03	0.000000e+00	
132	2.355699e-03	0.000000e+00	
133	2.375699e-03	0.000000e+00	
134	2.395699e-03	0.000000e+00	
135	2.415699e-03	0.000000e+00	
136	2.435699e-03	0.000000e+00	
137	2.455699e-03	0.000000e+00	
138	2.475699e-03	0.000000e+00	
139	2.495699e-03	0.000000e+00	
140	2.515699e-03	0.000000e+00	
141	2.535699e-03	0.000000e+00	
142	2.555699e-03	0.000000e+00	
143	2.575699e-03	0.000000e+00	
144	2.595699e-03	0.000000e+00	
145	2.615699e-03	0.000000e+00	
146	2.635699e-03	0.000000e+00	
147	2.655699e-03	0.000000e+00	
148	2.675699e-03	0.000000e+00	
149	2.695699e-03	0.000000e+00	
150	2.715699e-03	0.000000e+00	
151	2.735699e-03	0.000000e+00	
152	2.755699e-03	0.000000e+00	
153	2.775699e-03	0.000000e+00	
154	2.795699e-03	0.000000e+00	
155	2.815699e-03	0.000000e+00	
156	2.835699e-03	0.000000e+00	
157	2.855699e-03	0.000000e+00	
158	2.875699e-03	0.000000e+00	
159	2.895699e-03	0.000000e+00	
160	2.915699e-03	0.000000e+00	
161	2.935699e-03	0.000000e+00	
162	2.955699e-03	0.000000e+00	
163	2.975699e-03	0.000000e+00	
164	2.995699e-03	0.000000e+00	
165	3.015699e-03	0.000000e+00	
166	3.035699e-03	0.000000e+00	
167	3.055699e-03	0.000000e+00	
168	3.075699e-03	0.000000e+00	
169	3.095699e-03	0.000000e+00	
170	3.115699e-03	0.000000e+00	

Index   time            v(disable)      
--------------------------------------------------------------------------------
171	3.135699e-03	0.000000e+00	
172	3.155699e-03	0.000000e+00	
173	3.175699e-03	0.000000e+00	
174	3.195699e-03	0.000000e+00	
175	3.215699e-03	0.000000e+00	
176	3.235699e-03	0.000000e+00	
177	3.255699e-03	0.000000e+00	
178	3.275699e-03	0.000000e+00	
179	3.295699e-03	0.000000e+00	
180	3.315699e-03	0.000000e+00	
181	3.335699e-03	0.000000e+00	
182	3.355699e-03	0.000000e+00	
183	3.375699e-03	0.000000e+00	
184	3.395699e-03	0.000000e+00	
185	3.415699e-03	0.000000e+00	
186	3.435699e-03	0.000000e+00	
187	3.455699e-03	0.000000e+00	
188	3.475699e-03	0.000000e+00	
189	3.495699e-03	0.000000e+00	
190	3.515699e-03	0.000000e+00	
191	3.535699e-03	0.000000e+00	
192	3.555699e-03	0.000000e+00	
193	3.575699e-03	0.000000e+00	
194	3.595699e-03	0.000000e+00	
195	3.615699e-03	0.000000e+00	
196	3.635699e-03	0.000000e+00	
197	3.655699e-03	0.000000e+00	
198	3.675699e-03	0.000000e+00	
199	3.695699e-03	0.000000e+00	
200	3.715699e-03	0.000000e+00	
201	3.735699e-03	0.000000e+00	
202	3.755699e-03	0.000000e+00	
203	3.775699e-03	0.000000e+00	
204	3.795699e-03	0.000000e+00	
205	3.815699e-03	0.000000e+00	
206	3.835699e-03	0.000000e+00	
207	3.855699e-03	0.000000e+00	
208	3.875699e-03	0.000000e+00	
209	3.895699e-03	0.000000e+00	
210	3.915699e-03	0.000000e+00	
211	3.935699e-03	0.000000e+00	
212	3.955699e-03	0.000000e+00	
213	3.975699e-03	0.000000e+00	
214	3.995699e-03	0.000000e+00	
215	4.015699e-03	0.000000e+00	
216	4.035699e-03	0.000000e+00	
217	4.055699e-03	0.000000e+00	
218	4.075699e-03	0.000000e+00	
219	4.095699e-03	0.000000e+00	
220	4.115699e-03	0.000000e+00	
221	4.135699e-03	0.000000e+00	
222	4.155699e-03	0.000000e+00	
223	4.175699e-03	0.000000e+00	
224	4.195699e-03	0.000000e+00	
225	4.215699e-03	0.000000e+00	
226	4.235699e-03	0.000000e+00	
227	4.255699e-03	0.000000e+00	
228	4.275699e-03	0.000000e+00	

Index   time            v(disable)      
--------------------------------------------------------------------------------
229	4.295699e-03	0.000000e+00	
230	4.315699e-03	0.000000e+00	
231	4.335699e-03	0.000000e+00	
232	4.355699e-03	0.000000e+00	
233	4.375699e-03	0.000000e+00	
234	4.395699e-03	0.000000e+00	
235	4.415699e-03	0.000000e+00	
236	4.435699e-03	0.000000e+00	
237	4.455699e-03	0.000000e+00	
238	4.475699e-03	0.000000e+00	
239	4.495699e-03	0.000000e+00	
240	4.515699e-03	0.000000e+00	
241	4.535699e-03	0.000000e+00	
242	4.555699e-03	0.000000e+00	
243	4.575699e-03	0.000000e+00	
244	4.595699e-03	0.000000e+00	
245	4.615699e-03	0.000000e+00	
246	4.635699e-03	0.000000e+00	
247	4.655699e-03	0.000000e+00	
248	4.675699e-03	0.000000e+00	
249	4.695699e-03	0.000000e+00	
250	4.715699e-03	0.000000e+00	
251	4.735699e-03	0.000000e+00	
252	4.755699e-03	0.000000e+00	
253	4.775699e-03	0.000000e+00	
254	4.795699e-03	0.000000e+00	
255	4.815699e-03	0.000000e+00	
256	4.835699e-03	0.000000e+00	
257	4.855699e-03	0.000000e+00	
258	4.875699e-03	0.000000e+00	
259	4.895699e-03	0.000000e+00	
260	4.915699e-03	0.000000e+00	
261	4.935699e-03	0.000000e+00	
262	4.955699e-03	0.000000e+00	
263	4.975699e-03	0.000000e+00	
264	4.995699e-03	0.000000e+00	
265	5.015699e-03	0.000000e+00	
266	5.035699e-03	0.000000e+00	
267	5.055699e-03	0.000000e+00	
268	5.075699e-03	0.000000e+00	
269	5.095699e-03	0.000000e+00	
270	5.115699e-03	0.000000e+00	
271	5.135699e-03	0.000000e+00	
272	5.155699e-03	0.000000e+00	
273	5.175699e-03	0.000000e+00	
274	5.195699e-03	0.000000e+00	
275	5.215699e-03	0.000000e+00	
276	5.235699e-03	0.000000e+00	
277	5.255699e-03	0.000000e+00	
278	5.275699e-03	0.000000e+00	
279	5.295699e-03	0.000000e+00	
280	5.315699e-03	0.000000e+00	
281	5.335699e-03	0.000000e+00	
282	5.355699e-03	0.000000e+00	
283	5.375699e-03	0.000000e+00	
284	5.395699e-03	0.000000e+00	
285	5.415699e-03	0.000000e+00	
286	5.435699e-03	0.000000e+00	

Index   time            v(disable)      
--------------------------------------------------------------------------------
287	5.455699e-03	0.000000e+00	
288	5.475699e-03	0.000000e+00	
289	5.495699e-03	0.000000e+00	
290	5.515699e-03	0.000000e+00	
291	5.535699e-03	0.000000e+00	
292	5.555699e-03	0.000000e+00	
293	5.575699e-03	0.000000e+00	
294	5.595699e-03	0.000000e+00	
295	5.615699e-03	0.000000e+00	
296	5.635699e-03	0.000000e+00	
297	5.655699e-03	0.000000e+00	
298	5.675699e-03	0.000000e+00	
299	5.695699e-03	0.000000e+00	
300	5.715699e-03	0.000000e+00	
301	5.735699e-03	0.000000e+00	
302	5.755699e-03	0.000000e+00	
303	5.775699e-03	0.000000e+00	
304	5.795699e-03	0.000000e+00	
305	5.815699e-03	0.000000e+00	
306	5.835699e-03	0.000000e+00	
307	5.855699e-03	0.000000e+00	
308	5.875699e-03	0.000000e+00	
309	5.895699e-03	0.000000e+00	
310	5.915699e-03	0.000000e+00	
311	5.935699e-03	0.000000e+00	
312	5.955699e-03	0.000000e+00	
313	5.975699e-03	0.000000e+00	
314	5.995699e-03	0.000000e+00	
315	6.015699e-03	0.000000e+00	
316	6.035699e-03	0.000000e+00	
317	6.055699e-03	0.000000e+00	
318	6.075699e-03	0.000000e+00	
319	6.095699e-03	0.000000e+00	
320	6.115699e-03	0.000000e+00	
321	6.135699e-03	0.000000e+00	
322	6.155699e-03	0.000000e+00	
323	6.175699e-03	0.000000e+00	
324	6.195699e-03	0.000000e+00	
325	6.215699e-03	0.000000e+00	
326	6.235699e-03	0.000000e+00	
327	6.255699e-03	0.000000e+00	
328	6.275699e-03	0.000000e+00	
329	6.295699e-03	0.000000e+00	
330	6.315699e-03	0.000000e+00	
331	6.335699e-03	0.000000e+00	
332	6.355699e-03	0.000000e+00	
333	6.375699e-03	0.000000e+00	
334	6.395699e-03	0.000000e+00	
335	6.415699e-03	0.000000e+00	
336	6.435699e-03	0.000000e+00	
337	6.455699e-03	0.000000e+00	
338	6.475699e-03	0.000000e+00	
339	6.495699e-03	0.000000e+00	
340	6.515699e-03	0.000000e+00	
341	6.535699e-03	0.000000e+00	
342	6.555699e-03	0.000000e+00	
343	6.575699e-03	0.000000e+00	
344	6.595699e-03	0.000000e+00	

Index   time            v(disable)      
--------------------------------------------------------------------------------
345	6.615699e-03	0.000000e+00	
346	6.635699e-03	0.000000e+00	
347	6.655699e-03	0.000000e+00	
348	6.675699e-03	0.000000e+00	
349	6.695699e-03	0.000000e+00	
350	6.715699e-03	0.000000e+00	
351	6.735699e-03	0.000000e+00	
352	6.755699e-03	0.000000e+00	
353	6.775699e-03	0.000000e+00	
354	6.795699e-03	0.000000e+00	
355	6.815699e-03	0.000000e+00	
356	6.835699e-03	0.000000e+00	
357	6.855699e-03	0.000000e+00	
358	6.875699e-03	0.000000e+00	
359	6.895699e-03	0.000000e+00	
360	6.915699e-03	0.000000e+00	
361	6.935699e-03	0.000000e+00	
362	6.955699e-03	0.000000e+00	
363	6.975699e-03	0.000000e+00	
364	6.995699e-03	0.000000e+00	
365	7.015699e-03	0.000000e+00	
366	7.035699e-03	0.000000e+00	
367	7.055699e-03	0.000000e+00	
368	7.075699e-03	0.000000e+00	
369	7.095699e-03	0.000000e+00	
370	7.115699e-03	0.000000e+00	
371	7.135699e-03	0.000000e+00	
372	7.155699e-03	0.000000e+00	
373	7.175699e-03	0.000000e+00	
374	7.195699e-03	0.000000e+00	
375	7.215699e-03	0.000000e+00	
376	7.235699e-03	0.000000e+00	
377	7.255699e-03	0.000000e+00	
378	7.275699e-03	0.000000e+00	
379	7.295699e-03	0.000000e+00	
380	7.315699e-03	0.000000e+00	
381	7.335699e-03	0.000000e+00	
382	7.355699e-03	0.000000e+00	
383	7.375699e-03	0.000000e+00	
384	7.395699e-03	0.000000e+00	
385	7.415699e-03	0.000000e+00	
386	7.435699e-03	0.000000e+00	
387	7.455699e-03	0.000000e+00	
388	7.475699e-03	0.000000e+00	
389	7.495699e-03	0.000000e+00	
390	7.515699e-03	0.000000e+00	
391	7.535699e-03	0.000000e+00	
392	7.555699e-03	0.000000e+00	
393	7.575699e-03	0.000000e+00	
394	7.595699e-03	0.000000e+00	
395	7.615699e-03	0.000000e+00	
396	7.635699e-03	0.000000e+00	
397	7.655699e-03	0.000000e+00	
398	7.675699e-03	0.000000e+00	
399	7.695699e-03	0.000000e+00	
400	7.715699e-03	0.000000e+00	
401	7.735699e-03	0.000000e+00	
402	7.755699e-03	0.000000e+00	

Index   time            v(disable)      
--------------------------------------------------------------------------------
403	7.775699e-03	0.000000e+00	
404	7.795699e-03	0.000000e+00	
405	7.815699e-03	0.000000e+00	
406	7.835699e-03	0.000000e+00	
407	7.855699e-03	0.000000e+00	
408	7.875699e-03	0.000000e+00	
409	7.895699e-03	0.000000e+00	
410	7.915699e-03	0.000000e+00	
411	7.935699e-03	0.000000e+00	
412	7.955699e-03	0.000000e+00	
413	7.975699e-03	0.000000e+00	
414	7.995699e-03	0.000000e+00	
415	8.015699e-03	0.000000e+00	
416	8.035699e-03	0.000000e+00	
417	8.055699e-03	0.000000e+00	
418	8.075699e-03	0.000000e+00	
419	8.095699e-03	0.000000e+00	
420	8.115699e-03	0.000000e+00	
421	8.135699e-03	0.000000e+00	
422	8.155699e-03	0.000000e+00	
423	8.175699e-03	0.000000e+00	
424	8.195699e-03	0.000000e+00	
425	8.215699e-03	0.000000e+00	
426	8.235699e-03	0.000000e+00	
427	8.255699e-03	0.000000e+00	
428	8.275699e-03	0.000000e+00	
429	8.295699e-03	0.000000e+00	
430	8.315699e-03	0.000000e+00	
431	8.335699e-03	0.000000e+00	
432	8.355699e-03	0.000000e+00	
433	8.375699e-03	0.000000e+00	
434	8.395699e-03	0.000000e+00	
435	8.415699e-03	0.000000e+00	
436	8.435699e-03	0.000000e+00	
437	8.455699e-03	0.000000e+00	
438	8.475699e-03	0.000000e+00	
439	8.495699e-03	0.000000e+00	
440	8.515699e-03	0.000000e+00	
441	8.535699e-03	0.000000e+00	
442	8.555699e-03	0.000000e+00	
443	8.575699e-03	0.000000e+00	
444	8.595699e-03	0.000000e+00	
445	8.615699e-03	0.000000e+00	
446	8.635699e-03	0.000000e+00	
447	8.655699e-03	0.000000e+00	
448	8.675699e-03	0.000000e+00	
449	8.695699e-03	0.000000e+00	
450	8.715699e-03	0.000000e+00	
451	8.735699e-03	0.000000e+00	
452	8.755699e-03	0.000000e+00	
453	8.775699e-03	0.000000e+00	
454	8.795699e-03	0.000000e+00	
455	8.815699e-03	0.000000e+00	
456	8.835699e-03	0.000000e+00	
457	8.855699e-03	0.000000e+00	
458	8.875699e-03	0.000000e+00	
459	8.895699e-03	0.000000e+00	
460	8.915699e-03	0.000000e+00	

Index   time            v(disable)      
--------------------------------------------------------------------------------
461	8.935699e-03	0.000000e+00	
462	8.955699e-03	0.000000e+00	
463	8.975699e-03	0.000000e+00	
464	8.995699e-03	0.000000e+00	
465	9.015699e-03	0.000000e+00	
466	9.035699e-03	0.000000e+00	
467	9.055699e-03	0.000000e+00	
468	9.075699e-03	0.000000e+00	
469	9.095699e-03	0.000000e+00	
470	9.115699e-03	0.000000e+00	
471	9.135699e-03	0.000000e+00	
472	9.155699e-03	0.000000e+00	
473	9.175699e-03	0.000000e+00	
474	9.195699e-03	0.000000e+00	
475	9.215699e-03	0.000000e+00	
476	9.235699e-03	0.000000e+00	
477	9.255699e-03	0.000000e+00	
478	9.275699e-03	0.000000e+00	
479	9.295699e-03	0.000000e+00	
480	9.315699e-03	0.000000e+00	
481	9.335699e-03	0.000000e+00	
482	9.355699e-03	0.000000e+00	
483	9.375699e-03	0.000000e+00	
484	9.395699e-03	0.000000e+00	
485	9.415699e-03	0.000000e+00	
486	9.435699e-03	0.000000e+00	
487	9.455699e-03	0.000000e+00	
488	9.475699e-03	0.000000e+00	
489	9.495699e-03	0.000000e+00	
490	9.515699e-03	0.000000e+00	
491	9.535699e-03	0.000000e+00	
492	9.555699e-03	0.000000e+00	
493	9.575699e-03	0.000000e+00	
494	9.595699e-03	0.000000e+00	
495	9.615699e-03	0.000000e+00	
496	9.635699e-03	0.000000e+00	
497	9.655699e-03	0.000000e+00	
498	9.675699e-03	0.000000e+00	
499	9.695699e-03	0.000000e+00	
500	9.715699e-03	0.000000e+00	
501	9.735699e-03	0.000000e+00	
502	9.755699e-03	0.000000e+00	
503	9.775699e-03	0.000000e+00	
504	9.795699e-03	0.000000e+00	
505	9.815699e-03	0.000000e+00	
506	9.835699e-03	0.000000e+00	
507	9.855699e-03	0.000000e+00	
508	9.875699e-03	0.000000e+00	
509	9.895699e-03	0.000000e+00	
510	9.915699e-03	0.000000e+00	
511	9.935699e-03	0.000000e+00	
512	9.955699e-03	0.000000e+00	
513	9.975699e-03	0.000000e+00	
514	9.995699e-03	0.000000e+00	
515	1.001570e-02	0.000000e+00	
516	1.003570e-02	0.000000e+00	
517	1.005570e-02	0.000000e+00	
518	1.007570e-02	0.000000e+00	

Index   time            v(disable)      
--------------------------------------------------------------------------------
519	1.009570e-02	0.000000e+00	
520	1.011570e-02	0.000000e+00	
521	1.013570e-02	0.000000e+00	
522	1.015570e-02	0.000000e+00	
523	1.017570e-02	0.000000e+00	
524	1.019570e-02	0.000000e+00	
525	1.021570e-02	0.000000e+00	
526	1.023570e-02	0.000000e+00	
527	1.025570e-02	0.000000e+00	
528	1.027570e-02	0.000000e+00	
529	1.029570e-02	0.000000e+00	
530	1.031570e-02	0.000000e+00	
531	1.033570e-02	0.000000e+00	
532	1.035570e-02	0.000000e+00	
533	1.037570e-02	0.000000e+00	
534	1.039570e-02	0.000000e+00	
535	1.041570e-02	0.000000e+00	
536	1.043570e-02	0.000000e+00	
537	1.045570e-02	0.000000e+00	
538	1.047570e-02	0.000000e+00	
539	1.049570e-02	0.000000e+00	
540	1.051570e-02	0.000000e+00	
541	1.053570e-02	0.000000e+00	
542	1.055570e-02	0.000000e+00	
543	1.057570e-02	0.000000e+00	
544	1.059570e-02	0.000000e+00	
545	1.061570e-02	0.000000e+00	
546	1.063570e-02	0.000000e+00	
547	1.065570e-02	0.000000e+00	
548	1.067570e-02	0.000000e+00	
549	1.069570e-02	0.000000e+00	
550	1.071570e-02	0.000000e+00	
551	1.073570e-02	0.000000e+00	
552	1.075570e-02	0.000000e+00	
553	1.077570e-02	0.000000e+00	
554	1.079570e-02	0.000000e+00	
555	1.081570e-02	0.000000e+00	
556	1.083570e-02	0.000000e+00	
557	1.085570e-02	0.000000e+00	
558	1.087570e-02	0.000000e+00	
559	1.089570e-02	0.000000e+00	
560	1.091570e-02	0.000000e+00	
561	1.093570e-02	0.000000e+00	
562	1.095570e-02	0.000000e+00	
563	1.097570e-02	0.000000e+00	
564	1.099570e-02	0.000000e+00	
565	1.101570e-02	0.000000e+00	
566	1.103570e-02	0.000000e+00	
567	1.105570e-02	0.000000e+00	
568	1.107570e-02	0.000000e+00	
569	1.109570e-02	0.000000e+00	
570	1.111570e-02	0.000000e+00	
571	1.113570e-02	0.000000e+00	
572	1.115570e-02	0.000000e+00	
573	1.117570e-02	0.000000e+00	
574	1.119570e-02	0.000000e+00	
575	1.121570e-02	0.000000e+00	
576	1.123570e-02	0.000000e+00	

Index   time            v(disable)      
--------------------------------------------------------------------------------
577	1.125570e-02	0.000000e+00	
578	1.127570e-02	0.000000e+00	
579	1.129570e-02	0.000000e+00	
580	1.131570e-02	0.000000e+00	
581	1.133570e-02	0.000000e+00	
582	1.135570e-02	0.000000e+00	
583	1.137570e-02	0.000000e+00	
584	1.139570e-02	0.000000e+00	
585	1.141570e-02	0.000000e+00	
586	1.143570e-02	0.000000e+00	
587	1.145570e-02	0.000000e+00	
588	1.147570e-02	0.000000e+00	
589	1.149570e-02	0.000000e+00	
590	1.151570e-02	0.000000e+00	
591	1.153570e-02	0.000000e+00	
592	1.155570e-02	0.000000e+00	
593	1.157570e-02	0.000000e+00	
594	1.159570e-02	0.000000e+00	
595	1.161570e-02	0.000000e+00	
596	1.163570e-02	0.000000e+00	
597	1.165570e-02	0.000000e+00	
598	1.167570e-02	0.000000e+00	
599	1.169570e-02	0.000000e+00	
600	1.171570e-02	0.000000e+00	
601	1.173570e-02	0.000000e+00	
602	1.175570e-02	0.000000e+00	
603	1.177570e-02	0.000000e+00	
604	1.179570e-02	0.000000e+00	
605	1.181570e-02	0.000000e+00	
606	1.183570e-02	0.000000e+00	
607	1.185570e-02	0.000000e+00	
608	1.187570e-02	0.000000e+00	
609	1.189570e-02	0.000000e+00	
610	1.191570e-02	0.000000e+00	
611	1.193570e-02	0.000000e+00	
612	1.195570e-02	0.000000e+00	
613	1.197570e-02	0.000000e+00	
614	1.199570e-02	0.000000e+00	
615	1.200000e-02	0.000000e+00	
ngspice-44.2 done
