
Note: No compatibility mode selected!


Circuit: tb001-ga144-test-bringup

Doing analysis at TEMP = 27.000000 and TNOM = 27.000000

Using SPARSE 1.3 as Direct Linear Solver

Initial Transient Solution
--------------------------

Node                                   Voltage
----                                   -------
vin_src                                    1.8
vdrv                                       3.3
disable                                    3.3
vin_main                                1.7985
vmaster                                 1.7973
reset_hold                             1.52314
gcore                              0.000578734
vcore                             -3.29743e-42
gio                                0.000578734
vio                               -3.23288e-40
gan                                0.000578734
van                               -1.36336e-39
vdis#branch                                  0
vgatedrv#branch                   -0.000210601
vmain1p8#branch                     -0.0299566


No. of Data Rows : 616
                            tb001-ga144-test-bringup
                            Transient Analysis  Sat Jun 13 16:39:32  2026
--------------------------------------------------------------------------------
Index   time            v(vin_main)     v(vmaster)      v(reset_hold)   
--------------------------------------------------------------------------------
0	0.000000e+00	1.798502e+00	1.797304e+00	1.523139e+00	
1	2.000000e-07	1.798502e+00	1.797304e+00	1.523139e+00	
2	4.000000e-07	1.798502e+00	1.797304e+00	1.523139e+00	
3	8.000000e-07	1.798502e+00	1.797304e+00	1.523139e+00	
4	1.600000e-06	1.798502e+00	1.797304e+00	1.523139e+00	
5	3.200000e-06	1.798502e+00	1.797304e+00	1.523139e+00	
6	6.400000e-06	1.798502e+00	1.797304e+00	1.523139e+00	
7	1.280000e-05	1.798502e+00	1.797304e+00	1.523139e+00	
8	2.560000e-05	1.798502e+00	1.797304e+00	1.523139e+00	
9	4.560000e-05	1.798502e+00	1.797304e+00	1.523139e+00	
10	6.560000e-05	1.798502e+00	1.797304e+00	1.523139e+00	
11	8.560000e-05	1.798502e+00	1.797304e+00	1.523139e+00	
12	1.056000e-04	1.798502e+00	1.797304e+00	1.523139e+00	
13	1.256000e-04	1.798502e+00	1.797304e+00	1.523139e+00	
14	1.456000e-04	1.798502e+00	1.797304e+00	1.523139e+00	
15	1.656000e-04	1.798502e+00	1.797304e+00	1.523139e+00	
16	1.856000e-04	1.798502e+00	1.797304e+00	1.523139e+00	
17	2.056000e-04	1.798502e+00	1.797304e+00	1.523139e+00	
18	2.256000e-04	1.798502e+00	1.797304e+00	1.523139e+00	
19	2.456000e-04	1.798502e+00	1.797304e+00	1.523139e+00	
20	2.656000e-04	1.798502e+00	1.797304e+00	1.523139e+00	
21	2.856000e-04	1.798502e+00	1.797304e+00	1.523139e+00	
22	3.056000e-04	1.798502e+00	1.797304e+00	1.523139e+00	
23	3.256000e-04	1.798502e+00	1.797304e+00	1.523139e+00	
24	3.456000e-04	1.798502e+00	1.797304e+00	1.523139e+00	
25	3.656000e-04	1.798502e+00	1.797304e+00	1.523139e+00	
26	3.856000e-04	1.798502e+00	1.797304e+00	1.523139e+00	
27	4.056000e-04	1.798502e+00	1.797304e+00	1.523139e+00	
28	4.256000e-04	1.798502e+00	1.797304e+00	1.523139e+00	
29	4.456000e-04	1.798502e+00	1.797304e+00	1.523139e+00	
30	4.656000e-04	1.798502e+00	1.797304e+00	1.523139e+00	
31	4.856000e-04	1.798502e+00	1.797304e+00	1.523139e+00	
32	5.056000e-04	1.798502e+00	1.797304e+00	1.523139e+00	
33	5.256000e-04	1.798502e+00	1.797304e+00	1.523139e+00	
34	5.456000e-04	1.798502e+00	1.797304e+00	1.523139e+00	
35	5.656000e-04	1.798502e+00	1.797304e+00	1.523139e+00	
36	5.856000e-04	1.798502e+00	1.797304e+00	1.523139e+00	
37	6.056000e-04	1.798502e+00	1.797304e+00	1.523139e+00	
38	6.256000e-04	1.798502e+00	1.797304e+00	1.523139e+00	
39	6.456000e-04	1.798502e+00	1.797304e+00	1.523139e+00	
40	6.656000e-04	1.798502e+00	1.797304e+00	1.523139e+00	
41	6.856000e-04	1.798502e+00	1.797304e+00	1.523139e+00	
42	7.056000e-04	1.798502e+00	1.797304e+00	1.523139e+00	
43	7.256000e-04	1.798502e+00	1.797304e+00	1.523139e+00	
44	7.456000e-04	1.798502e+00	1.797304e+00	1.523139e+00	
45	7.656000e-04	1.798502e+00	1.797304e+00	1.523139e+00	
46	7.856000e-04	1.798502e+00	1.797304e+00	1.523139e+00	
47	8.056000e-04	1.798502e+00	1.797304e+00	1.523139e+00	
48	8.256000e-04	1.798502e+00	1.797304e+00	1.523139e+00	
49	8.456000e-04	1.798502e+00	1.797304e+00	1.523139e+00	
50	8.656000e-04	1.798502e+00	1.797304e+00	1.523139e+00	
51	8.856000e-04	1.798502e+00	1.797304e+00	1.523139e+00	
52	9.056000e-04	1.798502e+00	1.797304e+00	1.523139e+00	
53	9.256000e-04	1.798502e+00	1.797304e+00	1.523139e+00	
54	9.456000e-04	1.798502e+00	1.797304e+00	1.523139e+00	

Index   time            v(vin_main)     v(vmaster)      v(reset_hold)   
--------------------------------------------------------------------------------
55	9.656000e-04	1.798502e+00	1.797304e+00	1.523139e+00	
56	9.856000e-04	1.798502e+00	1.797304e+00	1.523139e+00	
57	1.000000e-03	1.798502e+00	1.797304e+00	1.523139e+00	
58	1.002000e-03	1.798502e+00	1.797304e+00	1.523139e+00	
59	1.006000e-03	1.798502e+00	1.797304e+00	1.523139e+00	
60	1.014000e-03	1.798502e+00	1.797304e+00	1.523139e+00	
61	1.020000e-03	1.438660e+00	1.479983e+00	1.523086e+00	
62	1.021411e-03	1.442850e+00	1.450299e+00	1.523059e+00	
63	1.024233e-03	1.527873e+00	1.503401e+00	1.523009e+00	
64	1.029285e-03	1.690962e+00	1.684616e+00	1.522952e+00	
65	1.035274e-03	1.742234e+00	1.739028e+00	1.522923e+00	
66	1.042868e-03	1.775784e+00	1.773062e+00	1.522906e+00	
67	1.056103e-03	1.788436e+00	1.787888e+00	1.522894e+00	
68	1.075985e-03	1.795067e+00	1.793022e+00	1.522887e+00	
69	1.095985e-03	1.793353e+00	1.793008e+00	1.522882e+00	
70	1.115985e-03	1.795092e+00	1.793044e+00	1.522878e+00	
71	1.135985e-03	1.793636e+00	1.793282e+00	1.522873e+00	
72	1.155985e-03	1.794899e+00	1.792877e+00	1.522869e+00	
73	1.175985e-03	1.793794e+00	1.793404e+00	1.522865e+00	
74	1.195985e-03	1.794771e+00	1.792795e+00	1.522861e+00	
75	1.215985e-03	1.793898e+00	1.793456e+00	1.522856e+00	
76	1.235985e-03	1.794686e+00	1.792764e+00	1.522852e+00	
77	1.255985e-03	1.793969e+00	1.793471e+00	1.522848e+00	
78	1.275985e-03	1.794626e+00	1.792761e+00	1.522843e+00	
79	1.295985e-03	1.794020e+00	1.793466e+00	1.522839e+00	
80	1.315985e-03	1.794582e+00	1.792773e+00	1.522835e+00	
81	1.335985e-03	1.794058e+00	1.793449e+00	1.522831e+00	
82	1.355985e-03	1.794548e+00	1.792792e+00	1.522826e+00	
83	1.375985e-03	1.794088e+00	1.793428e+00	1.522822e+00	
84	1.395985e-03	1.794521e+00	1.792815e+00	1.522818e+00	
85	1.415985e-03	1.794113e+00	1.793404e+00	1.522814e+00	
86	1.435985e-03	1.794499e+00	1.792839e+00	1.522809e+00	
87	1.455985e-03	1.794133e+00	1.793381e+00	1.522805e+00	
88	1.475985e-03	1.794479e+00	1.792862e+00	1.522801e+00	
89	1.495985e-03	1.794151e+00	1.793358e+00	1.522797e+00	
90	1.515985e-03	1.794463e+00	1.792884e+00	1.522793e+00	
91	1.535985e-03	1.794167e+00	1.793336e+00	1.522788e+00	
92	1.555985e-03	1.794448e+00	1.792905e+00	1.522784e+00	
93	1.575985e-03	1.794181e+00	1.793317e+00	1.522780e+00	
94	1.595985e-03	1.794435e+00	1.792924e+00	1.522776e+00	
95	1.615985e-03	1.794193e+00	1.793298e+00	1.522772e+00	
96	1.635985e-03	1.794423e+00	1.792941e+00	1.522768e+00	
97	1.655985e-03	1.794204e+00	1.793282e+00	1.522763e+00	
98	1.675985e-03	1.794413e+00	1.792957e+00	1.522759e+00	
99	1.695985e-03	1.794214e+00	1.793266e+00	1.522755e+00	
100	1.715985e-03	1.794403e+00	1.792972e+00	1.522751e+00	
101	1.735985e-03	1.794223e+00	1.793252e+00	1.522747e+00	
102	1.755985e-03	1.794395e+00	1.792985e+00	1.522743e+00	
103	1.775985e-03	1.794231e+00	1.793240e+00	1.522738e+00	
104	1.795985e-03	1.794387e+00	1.792997e+00	1.522734e+00	
105	1.815985e-03	1.794239e+00	1.793228e+00	1.522730e+00	
106	1.835985e-03	1.794380e+00	1.793008e+00	1.522726e+00	
107	1.855985e-03	1.794246e+00	1.793218e+00	1.522722e+00	
108	1.875985e-03	1.794373e+00	1.793018e+00	1.522718e+00	
109	1.895985e-03	1.794252e+00	1.793208e+00	1.522714e+00	
110	1.915985e-03	1.794368e+00	1.793027e+00	1.522710e+00	
111	1.935985e-03	1.794257e+00	1.793200e+00	1.522706e+00	
112	1.955985e-03	1.794362e+00	1.793036e+00	1.522702e+00	

Index   time            v(vin_main)     v(vmaster)      v(reset_hold)   
--------------------------------------------------------------------------------
113	1.975985e-03	1.794262e+00	1.793192e+00	1.522697e+00	
114	1.995985e-03	1.794358e+00	1.793043e+00	1.522693e+00	
115	2.015985e-03	1.794267e+00	1.793185e+00	1.522689e+00	
116	2.035985e-03	1.794353e+00	1.793050e+00	1.522685e+00	
117	2.055985e-03	1.794271e+00	1.793178e+00	1.522681e+00	
118	2.075985e-03	1.794349e+00	1.793056e+00	1.522677e+00	
119	2.095985e-03	1.794275e+00	1.793172e+00	1.522673e+00	
120	2.115985e-03	1.794346e+00	1.793061e+00	1.522669e+00	
121	2.135985e-03	1.794278e+00	1.793167e+00	1.522665e+00	
122	2.155985e-03	1.794342e+00	1.793066e+00	1.522661e+00	
123	2.175985e-03	1.794281e+00	1.793162e+00	1.522657e+00	
124	2.195985e-03	1.794340e+00	1.793071e+00	1.522653e+00	
125	2.215985e-03	1.794284e+00	1.793158e+00	1.522649e+00	
126	2.235985e-03	1.794337e+00	1.793075e+00	1.522645e+00	
127	2.255985e-03	1.794286e+00	1.793154e+00	1.522641e+00	
128	2.275985e-03	1.794335e+00	1.793079e+00	1.522637e+00	
129	2.295985e-03	1.794289e+00	1.793150e+00	1.522633e+00	
130	2.315985e-03	1.794332e+00	1.793082e+00	1.522629e+00	
131	2.335985e-03	1.794291e+00	1.793147e+00	1.522625e+00	
132	2.355985e-03	1.794330e+00	1.793085e+00	1.522621e+00	
133	2.375985e-03	1.794293e+00	1.793144e+00	1.522617e+00	
134	2.395985e-03	1.794329e+00	1.793088e+00	1.522613e+00	
135	2.415985e-03	1.794294e+00	1.793142e+00	1.522609e+00	
136	2.435985e-03	1.794327e+00	1.793091e+00	1.522605e+00	
137	2.455985e-03	1.794296e+00	1.793139e+00	1.522601e+00	
138	2.475985e-03	1.794325e+00	1.793093e+00	1.522597e+00	
139	2.495985e-03	1.794297e+00	1.793137e+00	1.522593e+00	
140	2.515985e-03	1.794324e+00	1.793095e+00	1.522589e+00	
141	2.535985e-03	1.794299e+00	1.793135e+00	1.522585e+00	
142	2.555985e-03	1.794323e+00	1.793097e+00	1.522582e+00	
143	2.575985e-03	1.794300e+00	1.793133e+00	1.522578e+00	
144	2.595985e-03	1.794322e+00	1.793099e+00	1.522574e+00	
145	2.615985e-03	1.794301e+00	1.793132e+00	1.522570e+00	
146	2.635985e-03	1.794321e+00	1.793100e+00	1.522566e+00	
147	2.655985e-03	1.794302e+00	1.793130e+00	1.522562e+00	
148	2.675985e-03	1.794320e+00	1.793102e+00	1.522558e+00	
149	2.695985e-03	1.794303e+00	1.793129e+00	1.522554e+00	
150	2.715985e-03	1.794319e+00	1.793103e+00	1.522550e+00	
151	2.735985e-03	1.794303e+00	1.793128e+00	1.522546e+00	
152	2.755985e-03	1.794318e+00	1.793104e+00	1.522543e+00	
153	2.775985e-03	1.794304e+00	1.793126e+00	1.522539e+00	
154	2.795985e-03	1.794318e+00	1.793105e+00	1.522535e+00	
155	2.815985e-03	1.794305e+00	1.793125e+00	1.522531e+00	
156	2.835985e-03	1.794317e+00	1.793106e+00	1.522527e+00	
157	2.855985e-03	1.794305e+00	1.793124e+00	1.522523e+00	
158	2.875985e-03	1.794316e+00	1.793107e+00	1.522519e+00	
159	2.895985e-03	1.794306e+00	1.793124e+00	1.522516e+00	
160	2.915985e-03	1.794316e+00	1.793108e+00	1.522512e+00	
161	2.935985e-03	1.794306e+00	1.793123e+00	1.522508e+00	
162	2.955985e-03	1.794316e+00	1.793109e+00	1.522504e+00	
163	2.975985e-03	1.794307e+00	1.793122e+00	1.522500e+00	
164	2.995985e-03	1.794315e+00	1.793109e+00	1.522496e+00	
165	3.015985e-03	1.794307e+00	1.793122e+00	1.522493e+00	
166	3.035985e-03	1.794315e+00	1.793110e+00	1.522489e+00	
167	3.055985e-03	1.794308e+00	1.793121e+00	1.522485e+00	
168	3.075985e-03	1.794314e+00	1.793110e+00	1.522481e+00	
169	3.095985e-03	1.794308e+00	1.793121e+00	1.522477e+00	
170	3.115985e-03	1.794314e+00	1.793111e+00	1.522474e+00	

Index   time            v(vin_main)     v(vmaster)      v(reset_hold)   
--------------------------------------------------------------------------------
171	3.135985e-03	1.794308e+00	1.793120e+00	1.522470e+00	
172	3.155985e-03	1.794314e+00	1.793111e+00	1.522466e+00	
173	3.175985e-03	1.794308e+00	1.793120e+00	1.522462e+00	
174	3.195985e-03	1.794314e+00	1.793112e+00	1.522459e+00	
175	3.215985e-03	1.794309e+00	1.793119e+00	1.522455e+00	
176	3.235985e-03	1.794313e+00	1.793112e+00	1.522451e+00	
177	3.255985e-03	1.794309e+00	1.793119e+00	1.522447e+00	
178	3.275985e-03	1.794313e+00	1.793112e+00	1.522444e+00	
179	3.295985e-03	1.794309e+00	1.793119e+00	1.522440e+00	
180	3.315985e-03	1.794313e+00	1.793113e+00	1.522436e+00	
181	3.335985e-03	1.794309e+00	1.793118e+00	1.522432e+00	
182	3.355985e-03	1.794313e+00	1.793113e+00	1.522429e+00	
183	3.375985e-03	1.794309e+00	1.793118e+00	1.522425e+00	
184	3.395985e-03	1.794313e+00	1.793113e+00	1.522421e+00	
185	3.415985e-03	1.794310e+00	1.793118e+00	1.522417e+00	
186	3.435985e-03	1.794312e+00	1.793113e+00	1.522414e+00	
187	3.455985e-03	1.794310e+00	1.793118e+00	1.522410e+00	
188	3.475985e-03	1.794312e+00	1.793114e+00	1.522406e+00	
189	3.495985e-03	1.794310e+00	1.793117e+00	1.522403e+00	
190	3.515985e-03	1.794312e+00	1.793114e+00	1.522399e+00	
191	3.535985e-03	1.794310e+00	1.793117e+00	1.522395e+00	
192	3.555985e-03	1.794312e+00	1.793114e+00	1.522392e+00	
193	3.575985e-03	1.794310e+00	1.793117e+00	1.522388e+00	
194	3.595985e-03	1.794312e+00	1.793114e+00	1.522384e+00	
195	3.615985e-03	1.794310e+00	1.793117e+00	1.522381e+00	
196	3.635985e-03	1.794312e+00	1.793114e+00	1.522377e+00	
197	3.655985e-03	1.794310e+00	1.793117e+00	1.522373e+00	
198	3.675985e-03	1.794312e+00	1.793114e+00	1.522370e+00	
199	3.695985e-03	1.794310e+00	1.793117e+00	1.522366e+00	
200	3.715985e-03	1.794312e+00	1.793114e+00	1.522362e+00	
201	3.735985e-03	1.794310e+00	1.793117e+00	1.522359e+00	
202	3.755985e-03	1.794312e+00	1.793115e+00	1.522355e+00	
203	3.775985e-03	1.794310e+00	1.793117e+00	1.522352e+00	
204	3.795985e-03	1.794312e+00	1.793115e+00	1.522348e+00	
205	3.815985e-03	1.794310e+00	1.793116e+00	1.522344e+00	
206	3.835985e-03	1.794312e+00	1.793115e+00	1.522341e+00	
207	3.855985e-03	1.794311e+00	1.793116e+00	1.522337e+00	
208	3.875985e-03	1.794312e+00	1.793115e+00	1.522333e+00	
209	3.895985e-03	1.794311e+00	1.793116e+00	1.522330e+00	
210	3.915985e-03	1.794311e+00	1.793115e+00	1.522326e+00	
211	3.935985e-03	1.794311e+00	1.793116e+00	1.522323e+00	
212	3.955985e-03	1.794311e+00	1.793115e+00	1.522319e+00	
213	3.975985e-03	1.794311e+00	1.793116e+00	1.522316e+00	
214	3.995985e-03	1.794311e+00	1.793115e+00	1.522312e+00	
215	4.015985e-03	1.794311e+00	1.793116e+00	1.522308e+00	
216	4.035985e-03	1.794311e+00	1.793115e+00	1.522305e+00	
217	4.055985e-03	1.794311e+00	1.793116e+00	1.522301e+00	
218	4.075985e-03	1.794311e+00	1.793115e+00	1.522298e+00	
219	4.095985e-03	1.794311e+00	1.793116e+00	1.522294e+00	
220	4.115985e-03	1.794311e+00	1.793115e+00	1.522291e+00	
221	4.135985e-03	1.794311e+00	1.793116e+00	1.522287e+00	
222	4.155985e-03	1.794311e+00	1.793115e+00	1.522284e+00	
223	4.175985e-03	1.794311e+00	1.793116e+00	1.522280e+00	
224	4.195985e-03	1.794311e+00	1.793115e+00	1.522277e+00	
225	4.215985e-03	1.794311e+00	1.793116e+00	1.522273e+00	
226	4.235985e-03	1.794311e+00	1.793115e+00	1.522269e+00	
227	4.255985e-03	1.794311e+00	1.793116e+00	1.522266e+00	
228	4.275985e-03	1.794311e+00	1.793115e+00	1.522262e+00	

Index   time            v(vin_main)     v(vmaster)      v(reset_hold)   
--------------------------------------------------------------------------------
229	4.295985e-03	1.794311e+00	1.793116e+00	1.522259e+00	
230	4.315985e-03	1.794311e+00	1.793115e+00	1.522255e+00	
231	4.335985e-03	1.794311e+00	1.793116e+00	1.522252e+00	
232	4.355985e-03	1.794311e+00	1.793115e+00	1.522248e+00	
233	4.375985e-03	1.794311e+00	1.793116e+00	1.522245e+00	
234	4.395985e-03	1.794311e+00	1.793115e+00	1.522242e+00	
235	4.415985e-03	1.794311e+00	1.793116e+00	1.522238e+00	
236	4.435985e-03	1.794311e+00	1.793115e+00	1.522235e+00	
237	4.455985e-03	1.794311e+00	1.793116e+00	1.522231e+00	
238	4.475985e-03	1.794311e+00	1.793115e+00	1.522228e+00	
239	4.495985e-03	1.794311e+00	1.793116e+00	1.522224e+00	
240	4.515985e-03	1.794311e+00	1.793115e+00	1.522221e+00	
241	4.535985e-03	1.794311e+00	1.793116e+00	1.522217e+00	
242	4.555985e-03	1.794311e+00	1.793115e+00	1.522214e+00	
243	4.575985e-03	1.794311e+00	1.793116e+00	1.522210e+00	
244	4.595985e-03	1.794311e+00	1.793115e+00	1.522207e+00	
245	4.615985e-03	1.794311e+00	1.793116e+00	1.522204e+00	
246	4.635985e-03	1.794311e+00	1.793115e+00	1.522200e+00	
247	4.655985e-03	1.794311e+00	1.793116e+00	1.522197e+00	
248	4.675985e-03	1.794311e+00	1.793115e+00	1.522193e+00	
249	4.695985e-03	1.794311e+00	1.793116e+00	1.522190e+00	
250	4.715985e-03	1.794311e+00	1.793115e+00	1.522186e+00	
251	4.735985e-03	1.794311e+00	1.793116e+00	1.522183e+00	
252	4.755985e-03	1.794311e+00	1.793115e+00	1.522180e+00	
253	4.775985e-03	1.794311e+00	1.793116e+00	1.522176e+00	
254	4.795985e-03	1.794311e+00	1.793115e+00	1.522173e+00	
255	4.815985e-03	1.794311e+00	1.793116e+00	1.522170e+00	
256	4.835985e-03	1.794311e+00	1.793115e+00	1.522166e+00	
257	4.855985e-03	1.794311e+00	1.793116e+00	1.522163e+00	
258	4.875985e-03	1.794311e+00	1.793115e+00	1.522159e+00	
259	4.895985e-03	1.794311e+00	1.793116e+00	1.522156e+00	
260	4.915985e-03	1.794311e+00	1.793115e+00	1.522153e+00	
261	4.935985e-03	1.794311e+00	1.793116e+00	1.522149e+00	
262	4.955985e-03	1.794311e+00	1.793116e+00	1.522146e+00	
263	4.975985e-03	1.794311e+00	1.793116e+00	1.522143e+00	
264	4.995985e-03	1.794311e+00	1.793116e+00	1.522139e+00	
265	5.015985e-03	1.794311e+00	1.793116e+00	1.522136e+00	
266	5.035985e-03	1.794311e+00	1.793116e+00	1.522133e+00	
267	5.055985e-03	1.794311e+00	1.793116e+00	1.522129e+00	
268	5.075985e-03	1.794311e+00	1.793116e+00	1.522126e+00	
269	5.095985e-03	1.794311e+00	1.793116e+00	1.522123e+00	
270	5.115985e-03	1.794311e+00	1.793116e+00	1.522119e+00	
271	5.135985e-03	1.794311e+00	1.793116e+00	1.522116e+00	
272	5.155985e-03	1.794311e+00	1.793116e+00	1.522113e+00	
273	5.175985e-03	1.794311e+00	1.793116e+00	1.522109e+00	
274	5.195985e-03	1.794311e+00	1.793116e+00	1.522106e+00	
275	5.215985e-03	1.794311e+00	1.793116e+00	1.522103e+00	
276	5.235985e-03	1.794311e+00	1.793116e+00	1.522099e+00	
277	5.255985e-03	1.794311e+00	1.793116e+00	1.522096e+00	
278	5.275985e-03	1.794311e+00	1.793116e+00	1.522093e+00	
279	5.295985e-03	1.794311e+00	1.793116e+00	1.522090e+00	
280	5.315985e-03	1.794311e+00	1.793116e+00	1.522086e+00	
281	5.335985e-03	1.794311e+00	1.793116e+00	1.522083e+00	
282	5.355985e-03	1.794311e+00	1.793116e+00	1.522080e+00	
283	5.375985e-03	1.794311e+00	1.793116e+00	1.522077e+00	
284	5.395985e-03	1.794311e+00	1.793116e+00	1.522073e+00	
285	5.415985e-03	1.794311e+00	1.793116e+00	1.522070e+00	
286	5.435985e-03	1.794311e+00	1.793116e+00	1.522067e+00	

Index   time            v(vin_main)     v(vmaster)      v(reset_hold)   
--------------------------------------------------------------------------------
287	5.455985e-03	1.794311e+00	1.793116e+00	1.522063e+00	
288	5.475985e-03	1.794311e+00	1.793116e+00	1.522060e+00	
289	5.495985e-03	1.794311e+00	1.793116e+00	1.522057e+00	
290	5.515985e-03	1.794311e+00	1.793116e+00	1.522054e+00	
291	5.535985e-03	1.794311e+00	1.793116e+00	1.522051e+00	
292	5.555985e-03	1.794311e+00	1.793116e+00	1.522047e+00	
293	5.575985e-03	1.794311e+00	1.793116e+00	1.522044e+00	
294	5.595985e-03	1.794311e+00	1.793116e+00	1.522041e+00	
295	5.615985e-03	1.794311e+00	1.793116e+00	1.522038e+00	
296	5.635985e-03	1.794311e+00	1.793116e+00	1.522034e+00	
297	5.655985e-03	1.794311e+00	1.793116e+00	1.522031e+00	
298	5.675985e-03	1.794311e+00	1.793116e+00	1.522028e+00	
299	5.695985e-03	1.794311e+00	1.793116e+00	1.522025e+00	
300	5.715985e-03	1.794311e+00	1.793116e+00	1.522022e+00	
301	5.735985e-03	1.794311e+00	1.793116e+00	1.522018e+00	
302	5.755985e-03	1.794311e+00	1.793116e+00	1.522015e+00	
303	5.775985e-03	1.794311e+00	1.793116e+00	1.522012e+00	
304	5.795985e-03	1.794311e+00	1.793116e+00	1.522009e+00	
305	5.815985e-03	1.794311e+00	1.793116e+00	1.522006e+00	
306	5.835985e-03	1.794311e+00	1.793116e+00	1.522003e+00	
307	5.855985e-03	1.794311e+00	1.793116e+00	1.521999e+00	
308	5.875985e-03	1.794311e+00	1.793116e+00	1.521996e+00	
309	5.895985e-03	1.794311e+00	1.793116e+00	1.521993e+00	
310	5.915985e-03	1.794311e+00	1.793116e+00	1.521990e+00	
311	5.935985e-03	1.794311e+00	1.793116e+00	1.521987e+00	
312	5.955985e-03	1.794311e+00	1.793116e+00	1.521984e+00	
313	5.975985e-03	1.794311e+00	1.793116e+00	1.521981e+00	
314	5.995985e-03	1.794311e+00	1.793116e+00	1.521977e+00	
315	6.015985e-03	1.794311e+00	1.793116e+00	1.521974e+00	
316	6.035985e-03	1.794311e+00	1.793116e+00	1.521971e+00	
317	6.055985e-03	1.794311e+00	1.793116e+00	1.521968e+00	
318	6.075985e-03	1.794311e+00	1.793116e+00	1.521965e+00	
319	6.095985e-03	1.794311e+00	1.793116e+00	1.521962e+00	
320	6.115985e-03	1.794311e+00	1.793116e+00	1.521959e+00	
321	6.135985e-03	1.794311e+00	1.793116e+00	1.521956e+00	
322	6.155985e-03	1.794311e+00	1.793116e+00	1.521953e+00	
323	6.175985e-03	1.794311e+00	1.793116e+00	1.521949e+00	
324	6.195985e-03	1.794311e+00	1.793116e+00	1.521946e+00	
325	6.215985e-03	1.794311e+00	1.793116e+00	1.521943e+00	
326	6.235985e-03	1.794311e+00	1.793116e+00	1.521940e+00	
327	6.255985e-03	1.794311e+00	1.793116e+00	1.521937e+00	
328	6.275985e-03	1.794311e+00	1.793116e+00	1.521934e+00	
329	6.295985e-03	1.794311e+00	1.793116e+00	1.521931e+00	
330	6.315985e-03	1.794311e+00	1.793116e+00	1.521928e+00	
331	6.335985e-03	1.794311e+00	1.793116e+00	1.521925e+00	
332	6.355985e-03	1.794311e+00	1.793116e+00	1.521922e+00	
333	6.375985e-03	1.794311e+00	1.793116e+00	1.521919e+00	
334	6.395985e-03	1.794311e+00	1.793116e+00	1.521916e+00	
335	6.415985e-03	1.794311e+00	1.793116e+00	1.521913e+00	
336	6.435985e-03	1.794311e+00	1.793116e+00	1.521910e+00	
337	6.455985e-03	1.794311e+00	1.793116e+00	1.521907e+00	
338	6.475985e-03	1.794311e+00	1.793116e+00	1.521903e+00	
339	6.495985e-03	1.794311e+00	1.793116e+00	1.521900e+00	
340	6.515985e-03	1.794311e+00	1.793116e+00	1.521897e+00	
341	6.535985e-03	1.794311e+00	1.793116e+00	1.521894e+00	
342	6.555985e-03	1.794311e+00	1.793116e+00	1.521891e+00	
343	6.575985e-03	1.794311e+00	1.793116e+00	1.521888e+00	
344	6.595985e-03	1.794311e+00	1.793116e+00	1.521885e+00	

Index   time            v(vin_main)     v(vmaster)      v(reset_hold)   
--------------------------------------------------------------------------------
345	6.615985e-03	1.794311e+00	1.793116e+00	1.521882e+00	
346	6.635985e-03	1.794311e+00	1.793116e+00	1.521879e+00	
347	6.655985e-03	1.794311e+00	1.793116e+00	1.521876e+00	
348	6.675985e-03	1.794311e+00	1.793116e+00	1.521873e+00	
349	6.695985e-03	1.794311e+00	1.793116e+00	1.521870e+00	
350	6.715985e-03	1.794311e+00	1.793116e+00	1.521867e+00	
351	6.735985e-03	1.794311e+00	1.793116e+00	1.521864e+00	
352	6.755985e-03	1.794311e+00	1.793116e+00	1.521861e+00	
353	6.775985e-03	1.794311e+00	1.793116e+00	1.521858e+00	
354	6.795985e-03	1.794311e+00	1.793116e+00	1.521855e+00	
355	6.815985e-03	1.794311e+00	1.793116e+00	1.521852e+00	
356	6.835985e-03	1.794311e+00	1.793116e+00	1.521849e+00	
357	6.855985e-03	1.794311e+00	1.793116e+00	1.521847e+00	
358	6.875985e-03	1.794311e+00	1.793116e+00	1.521844e+00	
359	6.895985e-03	1.794311e+00	1.793116e+00	1.521841e+00	
360	6.915985e-03	1.794311e+00	1.793116e+00	1.521838e+00	
361	6.935985e-03	1.794311e+00	1.793116e+00	1.521835e+00	
362	6.955985e-03	1.794311e+00	1.793116e+00	1.521832e+00	
363	6.975985e-03	1.794311e+00	1.793116e+00	1.521829e+00	
364	6.995985e-03	1.794311e+00	1.793116e+00	1.521826e+00	
365	7.015985e-03	1.794311e+00	1.793116e+00	1.521823e+00	
366	7.035985e-03	1.794311e+00	1.793116e+00	1.521820e+00	
367	7.055985e-03	1.794311e+00	1.793116e+00	1.521817e+00	
368	7.075985e-03	1.794311e+00	1.793116e+00	1.521814e+00	
369	7.095985e-03	1.794311e+00	1.793116e+00	1.521811e+00	
370	7.115985e-03	1.794311e+00	1.793116e+00	1.521808e+00	
371	7.135985e-03	1.794311e+00	1.793116e+00	1.521805e+00	
372	7.155985e-03	1.794311e+00	1.793116e+00	1.521803e+00	
373	7.175985e-03	1.794311e+00	1.793116e+00	1.521800e+00	
374	7.195985e-03	1.794311e+00	1.793116e+00	1.521797e+00	
375	7.215985e-03	1.794311e+00	1.793116e+00	1.521794e+00	
376	7.235985e-03	1.794311e+00	1.793116e+00	1.521791e+00	
377	7.255985e-03	1.794311e+00	1.793116e+00	1.521788e+00	
378	7.275985e-03	1.794311e+00	1.793116e+00	1.521785e+00	
379	7.295985e-03	1.794311e+00	1.793116e+00	1.521782e+00	
380	7.315985e-03	1.794311e+00	1.793116e+00	1.521779e+00	
381	7.335985e-03	1.794311e+00	1.793116e+00	1.521777e+00	
382	7.355985e-03	1.794311e+00	1.793116e+00	1.521774e+00	
383	7.375985e-03	1.794311e+00	1.793116e+00	1.521771e+00	
384	7.395985e-03	1.794311e+00	1.793116e+00	1.521768e+00	
385	7.415985e-03	1.794311e+00	1.793116e+00	1.521765e+00	
386	7.435985e-03	1.794311e+00	1.793116e+00	1.521762e+00	
387	7.455985e-03	1.794311e+00	1.793116e+00	1.521759e+00	
388	7.475985e-03	1.794311e+00	1.793116e+00	1.521757e+00	
389	7.495985e-03	1.794311e+00	1.793116e+00	1.521754e+00	
390	7.515985e-03	1.794311e+00	1.793116e+00	1.521751e+00	
391	7.535985e-03	1.794311e+00	1.793116e+00	1.521748e+00	
392	7.555985e-03	1.794311e+00	1.793116e+00	1.521745e+00	
393	7.575985e-03	1.794311e+00	1.793116e+00	1.521742e+00	
394	7.595985e-03	1.794311e+00	1.793116e+00	1.521740e+00	
395	7.615985e-03	1.794311e+00	1.793116e+00	1.521737e+00	
396	7.635985e-03	1.794311e+00	1.793116e+00	1.521734e+00	
397	7.655985e-03	1.794311e+00	1.793116e+00	1.521731e+00	
398	7.675985e-03	1.794311e+00	1.793116e+00	1.521728e+00	
399	7.695985e-03	1.794311e+00	1.793116e+00	1.521726e+00	
400	7.715985e-03	1.794311e+00	1.793116e+00	1.521723e+00	
401	7.735985e-03	1.794311e+00	1.793116e+00	1.521720e+00	
402	7.755985e-03	1.794311e+00	1.793116e+00	1.521717e+00	

Index   time            v(vin_main)     v(vmaster)      v(reset_hold)   
--------------------------------------------------------------------------------
403	7.775985e-03	1.794311e+00	1.793116e+00	1.521714e+00	
404	7.795985e-03	1.794311e+00	1.793116e+00	1.521712e+00	
405	7.815985e-03	1.794311e+00	1.793116e+00	1.521709e+00	
406	7.835985e-03	1.794311e+00	1.793116e+00	1.521706e+00	
407	7.855985e-03	1.794311e+00	1.793116e+00	1.521703e+00	
408	7.875985e-03	1.794311e+00	1.793116e+00	1.521701e+00	
409	7.895985e-03	1.794311e+00	1.793116e+00	1.521698e+00	
410	7.915985e-03	1.794311e+00	1.793116e+00	1.521695e+00	
411	7.935985e-03	1.794311e+00	1.793116e+00	1.521692e+00	
412	7.955985e-03	1.794311e+00	1.793116e+00	1.521690e+00	
413	7.975985e-03	1.794311e+00	1.793116e+00	1.521687e+00	
414	7.995985e-03	1.794311e+00	1.793116e+00	1.521684e+00	
415	8.015985e-03	1.794311e+00	1.793116e+00	1.521681e+00	
416	8.035985e-03	1.794311e+00	1.793116e+00	1.521679e+00	
417	8.055985e-03	1.794311e+00	1.793116e+00	1.521676e+00	
418	8.075985e-03	1.794311e+00	1.793116e+00	1.521673e+00	
419	8.095985e-03	1.794311e+00	1.793116e+00	1.521670e+00	
420	8.115985e-03	1.794311e+00	1.793116e+00	1.521668e+00	
421	8.135985e-03	1.794311e+00	1.793116e+00	1.521665e+00	
422	8.155985e-03	1.794311e+00	1.793116e+00	1.521662e+00	
423	8.175985e-03	1.794311e+00	1.793116e+00	1.521659e+00	
424	8.195985e-03	1.794311e+00	1.793116e+00	1.521657e+00	
425	8.215985e-03	1.794311e+00	1.793116e+00	1.521654e+00	
426	8.235985e-03	1.794311e+00	1.793116e+00	1.521651e+00	
427	8.255985e-03	1.794311e+00	1.793116e+00	1.521649e+00	
428	8.275985e-03	1.794311e+00	1.793116e+00	1.521646e+00	
429	8.295985e-03	1.794311e+00	1.793116e+00	1.521643e+00	
430	8.315985e-03	1.794311e+00	1.793116e+00	1.521641e+00	
431	8.335985e-03	1.794311e+00	1.793116e+00	1.521638e+00	
432	8.355985e-03	1.794311e+00	1.793116e+00	1.521635e+00	
433	8.375985e-03	1.794311e+00	1.793116e+00	1.521632e+00	
434	8.395985e-03	1.794311e+00	1.793116e+00	1.521630e+00	
435	8.415985e-03	1.794311e+00	1.793116e+00	1.521627e+00	
436	8.435985e-03	1.794311e+00	1.793116e+00	1.521624e+00	
437	8.455985e-03	1.794311e+00	1.793116e+00	1.521622e+00	
438	8.475985e-03	1.794311e+00	1.793116e+00	1.521619e+00	
439	8.495985e-03	1.794311e+00	1.793116e+00	1.521616e+00	
440	8.515985e-03	1.794311e+00	1.793116e+00	1.521614e+00	
441	8.535985e-03	1.794311e+00	1.793116e+00	1.521611e+00	
442	8.555985e-03	1.794311e+00	1.793116e+00	1.521609e+00	
443	8.575985e-03	1.794311e+00	1.793116e+00	1.521606e+00	
444	8.595985e-03	1.794311e+00	1.793116e+00	1.521603e+00	
445	8.615985e-03	1.794311e+00	1.793116e+00	1.521601e+00	
446	8.635985e-03	1.794311e+00	1.793116e+00	1.521598e+00	
447	8.655985e-03	1.794311e+00	1.793116e+00	1.521595e+00	
448	8.675985e-03	1.794311e+00	1.793116e+00	1.521593e+00	
449	8.695985e-03	1.794311e+00	1.793116e+00	1.521590e+00	
450	8.715985e-03	1.794311e+00	1.793116e+00	1.521587e+00	
451	8.735985e-03	1.794311e+00	1.793116e+00	1.521585e+00	
452	8.755985e-03	1.794311e+00	1.793116e+00	1.521582e+00	
453	8.775985e-03	1.794311e+00	1.793116e+00	1.521580e+00	
454	8.795985e-03	1.794311e+00	1.793116e+00	1.521577e+00	
455	8.815985e-03	1.794311e+00	1.793116e+00	1.521574e+00	
456	8.835985e-03	1.794311e+00	1.793116e+00	1.521572e+00	
457	8.855985e-03	1.794311e+00	1.793116e+00	1.521569e+00	
458	8.875985e-03	1.794311e+00	1.793116e+00	1.521567e+00	
459	8.895985e-03	1.794311e+00	1.793116e+00	1.521564e+00	
460	8.915985e-03	1.794311e+00	1.793116e+00	1.521561e+00	

Index   time            v(vin_main)     v(vmaster)      v(reset_hold)   
--------------------------------------------------------------------------------
461	8.935985e-03	1.794311e+00	1.793116e+00	1.521559e+00	
462	8.955985e-03	1.794311e+00	1.793116e+00	1.521556e+00	
463	8.975985e-03	1.794311e+00	1.793116e+00	1.521554e+00	
464	8.995985e-03	1.794311e+00	1.793116e+00	1.521551e+00	
465	9.015985e-03	1.794311e+00	1.793116e+00	1.521549e+00	
466	9.035985e-03	1.794311e+00	1.793116e+00	1.521546e+00	
467	9.055985e-03	1.794311e+00	1.793116e+00	1.521543e+00	
468	9.075985e-03	1.794311e+00	1.793116e+00	1.521541e+00	
469	9.095985e-03	1.794311e+00	1.793116e+00	1.521538e+00	
470	9.115985e-03	1.794311e+00	1.793116e+00	1.521536e+00	
471	9.135985e-03	1.794311e+00	1.793116e+00	1.521533e+00	
472	9.155985e-03	1.794311e+00	1.793116e+00	1.521531e+00	
473	9.175985e-03	1.794311e+00	1.793116e+00	1.521528e+00	
474	9.195985e-03	1.794311e+00	1.793116e+00	1.521526e+00	
475	9.215985e-03	1.794311e+00	1.793116e+00	1.521523e+00	
476	9.235985e-03	1.794311e+00	1.793116e+00	1.521520e+00	
477	9.255985e-03	1.794311e+00	1.793116e+00	1.521518e+00	
478	9.275985e-03	1.794311e+00	1.793116e+00	1.521515e+00	
479	9.295985e-03	1.794311e+00	1.793116e+00	1.521513e+00	
480	9.315985e-03	1.794311e+00	1.793116e+00	1.521510e+00	
481	9.335985e-03	1.794311e+00	1.793116e+00	1.521508e+00	
482	9.355985e-03	1.794311e+00	1.793116e+00	1.521505e+00	
483	9.375985e-03	1.794311e+00	1.793116e+00	1.521503e+00	
484	9.395985e-03	1.794311e+00	1.793116e+00	1.521500e+00	
485	9.415985e-03	1.794311e+00	1.793116e+00	1.521498e+00	
486	9.435985e-03	1.794311e+00	1.793116e+00	1.521495e+00	
487	9.455985e-03	1.794311e+00	1.793116e+00	1.521493e+00	
488	9.475985e-03	1.794311e+00	1.793116e+00	1.521490e+00	
489	9.495985e-03	1.794311e+00	1.793116e+00	1.521488e+00	
490	9.515985e-03	1.794311e+00	1.793116e+00	1.521485e+00	
491	9.535985e-03	1.794311e+00	1.793116e+00	1.521483e+00	
492	9.555985e-03	1.794311e+00	1.793116e+00	1.521480e+00	
493	9.575985e-03	1.794311e+00	1.793116e+00	1.521478e+00	
494	9.595985e-03	1.794311e+00	1.793116e+00	1.521475e+00	
495	9.615985e-03	1.794311e+00	1.793116e+00	1.521473e+00	
496	9.635985e-03	1.794311e+00	1.793116e+00	1.521471e+00	
497	9.655985e-03	1.794311e+00	1.793116e+00	1.521468e+00	
498	9.675985e-03	1.794311e+00	1.793116e+00	1.521466e+00	
499	9.695985e-03	1.794311e+00	1.793116e+00	1.521463e+00	
500	9.715985e-03	1.794311e+00	1.793116e+00	1.521461e+00	
501	9.735985e-03	1.794311e+00	1.793116e+00	1.521458e+00	
502	9.755985e-03	1.794311e+00	1.793116e+00	1.521456e+00	
503	9.775985e-03	1.794311e+00	1.793116e+00	1.521453e+00	
504	9.795985e-03	1.794311e+00	1.793116e+00	1.521451e+00	
505	9.815985e-03	1.794311e+00	1.793116e+00	1.521448e+00	
506	9.835985e-03	1.794311e+00	1.793116e+00	1.521446e+00	
507	9.855985e-03	1.794311e+00	1.793116e+00	1.521444e+00	
508	9.875985e-03	1.794311e+00	1.793116e+00	1.521441e+00	
509	9.895985e-03	1.794311e+00	1.793116e+00	1.521439e+00	
510	9.915985e-03	1.794311e+00	1.793116e+00	1.521436e+00	
511	9.935985e-03	1.794311e+00	1.793116e+00	1.521434e+00	
512	9.955985e-03	1.794311e+00	1.793116e+00	1.521431e+00	
513	9.975985e-03	1.794311e+00	1.793116e+00	1.521429e+00	
514	9.995985e-03	1.794311e+00	1.793116e+00	1.521427e+00	
515	1.001599e-02	1.794311e+00	1.793116e+00	1.521424e+00	
516	1.003599e-02	1.794311e+00	1.793116e+00	1.521422e+00	
517	1.005599e-02	1.794311e+00	1.793116e+00	1.521419e+00	
518	1.007599e-02	1.794311e+00	1.793116e+00	1.521417e+00	

Index   time            v(vin_main)     v(vmaster)      v(reset_hold)   
--------------------------------------------------------------------------------
519	1.009599e-02	1.794311e+00	1.793116e+00	1.521415e+00	
520	1.011599e-02	1.794311e+00	1.793116e+00	1.521412e+00	
521	1.013599e-02	1.794311e+00	1.793116e+00	1.521410e+00	
522	1.015599e-02	1.794311e+00	1.793116e+00	1.521407e+00	
523	1.017599e-02	1.794311e+00	1.793116e+00	1.521405e+00	
524	1.019599e-02	1.794311e+00	1.793116e+00	1.521403e+00	
525	1.021599e-02	1.794311e+00	1.793116e+00	1.521400e+00	
526	1.023599e-02	1.794311e+00	1.793116e+00	1.521398e+00	
527	1.025599e-02	1.794311e+00	1.793116e+00	1.521396e+00	
528	1.027599e-02	1.794311e+00	1.793116e+00	1.521393e+00	
529	1.029599e-02	1.794311e+00	1.793116e+00	1.521391e+00	
530	1.031599e-02	1.794311e+00	1.793116e+00	1.521388e+00	
531	1.033599e-02	1.794311e+00	1.793116e+00	1.521386e+00	
532	1.035599e-02	1.794311e+00	1.793116e+00	1.521384e+00	
533	1.037599e-02	1.794311e+00	1.793116e+00	1.521381e+00	
534	1.039599e-02	1.794311e+00	1.793116e+00	1.521379e+00	
535	1.041599e-02	1.794311e+00	1.793116e+00	1.521377e+00	
536	1.043599e-02	1.794311e+00	1.793116e+00	1.521374e+00	
537	1.045599e-02	1.794311e+00	1.793116e+00	1.521372e+00	
538	1.047599e-02	1.794311e+00	1.793116e+00	1.521370e+00	
539	1.049599e-02	1.794311e+00	1.793116e+00	1.521367e+00	
540	1.051599e-02	1.794311e+00	1.793116e+00	1.521365e+00	
541	1.053599e-02	1.794311e+00	1.793116e+00	1.521363e+00	
542	1.055599e-02	1.794311e+00	1.793116e+00	1.521360e+00	
543	1.057599e-02	1.794311e+00	1.793116e+00	1.521358e+00	
544	1.059599e-02	1.794311e+00	1.793116e+00	1.521356e+00	
545	1.061599e-02	1.794311e+00	1.793116e+00	1.521353e+00	
546	1.063599e-02	1.794311e+00	1.793116e+00	1.521351e+00	
547	1.065599e-02	1.794311e+00	1.793116e+00	1.521349e+00	
548	1.067599e-02	1.794311e+00	1.793116e+00	1.521347e+00	
549	1.069599e-02	1.794311e+00	1.793116e+00	1.521344e+00	
550	1.071599e-02	1.794311e+00	1.793116e+00	1.521342e+00	
551	1.073599e-02	1.794311e+00	1.793116e+00	1.521340e+00	
552	1.075599e-02	1.794311e+00	1.793116e+00	1.521337e+00	
553	1.077599e-02	1.794311e+00	1.793116e+00	1.521335e+00	
554	1.079599e-02	1.794311e+00	1.793116e+00	1.521333e+00	
555	1.081599e-02	1.794311e+00	1.793116e+00	1.521330e+00	
556	1.083599e-02	1.794311e+00	1.793116e+00	1.521328e+00	
557	1.085599e-02	1.794311e+00	1.793116e+00	1.521326e+00	
558	1.087599e-02	1.794311e+00	1.793116e+00	1.521324e+00	
559	1.089599e-02	1.794311e+00	1.793116e+00	1.521321e+00	
560	1.091599e-02	1.794311e+00	1.793116e+00	1.521319e+00	
561	1.093599e-02	1.794311e+00	1.793116e+00	1.521317e+00	
562	1.095599e-02	1.794311e+00	1.793116e+00	1.521315e+00	
563	1.097599e-02	1.794311e+00	1.793116e+00	1.521312e+00	
564	1.099599e-02	1.794311e+00	1.793116e+00	1.521310e+00	
565	1.101599e-02	1.794311e+00	1.793116e+00	1.521308e+00	
566	1.103599e-02	1.794311e+00	1.793116e+00	1.521306e+00	
567	1.105599e-02	1.794311e+00	1.793116e+00	1.521303e+00	
568	1.107599e-02	1.794311e+00	1.793116e+00	1.521301e+00	
569	1.109599e-02	1.794311e+00	1.793116e+00	1.521299e+00	
570	1.111599e-02	1.794311e+00	1.793116e+00	1.521297e+00	
571	1.113599e-02	1.794311e+00	1.793116e+00	1.521294e+00	
572	1.115599e-02	1.794311e+00	1.793116e+00	1.521292e+00	
573	1.117599e-02	1.794311e+00	1.793116e+00	1.521290e+00	
574	1.119599e-02	1.794311e+00	1.793116e+00	1.521288e+00	
575	1.121599e-02	1.794311e+00	1.793116e+00	1.521285e+00	
576	1.123599e-02	1.794311e+00	1.793116e+00	1.521283e+00	

Index   time            v(vin_main)     v(vmaster)      v(reset_hold)   
--------------------------------------------------------------------------------
577	1.125599e-02	1.794311e+00	1.793116e+00	1.521281e+00	
578	1.127599e-02	1.794311e+00	1.793116e+00	1.521279e+00	
579	1.129599e-02	1.794311e+00	1.793116e+00	1.521277e+00	
580	1.131599e-02	1.794311e+00	1.793116e+00	1.521274e+00	
581	1.133599e-02	1.794311e+00	1.793116e+00	1.521272e+00	
582	1.135599e-02	1.794311e+00	1.793116e+00	1.521270e+00	
583	1.137599e-02	1.794311e+00	1.793116e+00	1.521268e+00	
584	1.139599e-02	1.794311e+00	1.793116e+00	1.521266e+00	
585	1.141599e-02	1.794311e+00	1.793116e+00	1.521263e+00	
586	1.143599e-02	1.794311e+00	1.793116e+00	1.521261e+00	
587	1.145599e-02	1.794311e+00	1.793116e+00	1.521259e+00	
588	1.147599e-02	1.794311e+00	1.793116e+00	1.521257e+00	
589	1.149599e-02	1.794311e+00	1.793116e+00	1.521255e+00	
590	1.151599e-02	1.794311e+00	1.793116e+00	1.521252e+00	
591	1.153599e-02	1.794311e+00	1.793116e+00	1.521250e+00	
592	1.155599e-02	1.794311e+00	1.793116e+00	1.521248e+00	
593	1.157599e-02	1.794311e+00	1.793116e+00	1.521246e+00	
594	1.159599e-02	1.794311e+00	1.793116e+00	1.521244e+00	
595	1.161599e-02	1.794311e+00	1.793116e+00	1.521242e+00	
596	1.163599e-02	1.794311e+00	1.793116e+00	1.521239e+00	
597	1.165599e-02	1.794311e+00	1.793116e+00	1.521237e+00	
598	1.167599e-02	1.794311e+00	1.793116e+00	1.521235e+00	
599	1.169599e-02	1.794311e+00	1.793116e+00	1.521233e+00	
600	1.171599e-02	1.794311e+00	1.793116e+00	1.521231e+00	
601	1.173599e-02	1.794311e+00	1.793116e+00	1.521229e+00	
602	1.175599e-02	1.794311e+00	1.793116e+00	1.521226e+00	
603	1.177599e-02	1.794311e+00	1.793116e+00	1.521224e+00	
604	1.179599e-02	1.794311e+00	1.793116e+00	1.521222e+00	
605	1.181599e-02	1.794311e+00	1.793116e+00	1.521220e+00	
606	1.183599e-02	1.794311e+00	1.793116e+00	1.521218e+00	
607	1.185599e-02	1.794311e+00	1.793116e+00	1.521216e+00	
608	1.187599e-02	1.794311e+00	1.793116e+00	1.521214e+00	
609	1.189599e-02	1.794311e+00	1.793116e+00	1.521211e+00	
610	1.191599e-02	1.794311e+00	1.793116e+00	1.521209e+00	
611	1.193599e-02	1.794311e+00	1.793116e+00	1.521207e+00	
612	1.195599e-02	1.794311e+00	1.793116e+00	1.521205e+00	
613	1.197599e-02	1.794311e+00	1.793116e+00	1.521203e+00	
614	1.199599e-02	1.794311e+00	1.793116e+00	1.521201e+00	
615	1.200000e-02	1.794311e+00	1.793116e+00	1.521200e+00	

                            tb001-ga144-test-bringup
                            Transient Analysis  Sat Jun 13 16:39:32  2026
--------------------------------------------------------------------------------
Index   time            v(gcore)        v(gio)          v(gan)          
--------------------------------------------------------------------------------
0	0.000000e+00	5.787345e-04	5.787345e-04	5.787345e-04	
1	2.000000e-07	5.787345e-04	5.787345e-04	5.787345e-04	
2	4.000000e-07	5.787345e-04	5.787345e-04	5.787345e-04	
3	8.000000e-07	5.787345e-04	5.787345e-04	5.787345e-04	
4	1.600000e-06	5.787345e-04	5.787345e-04	5.787345e-04	
5	3.200000e-06	5.787345e-04	5.787345e-04	5.787345e-04	
6	6.400000e-06	5.787345e-04	5.787345e-04	5.787345e-04	
7	1.280000e-05	5.787345e-04	5.787345e-04	5.787345e-04	
8	2.560000e-05	5.787345e-04	5.787345e-04	5.787345e-04	
9	4.560000e-05	5.787345e-04	5.787345e-04	5.787345e-04	
10	6.560000e-05	5.787345e-04	5.787345e-04	5.787345e-04	
11	8.560000e-05	5.787345e-04	5.787345e-04	5.787345e-04	
12	1.056000e-04	5.787345e-04	5.787345e-04	5.787345e-04	
13	1.256000e-04	5.787345e-04	5.787345e-04	5.787345e-04	
14	1.456000e-04	5.787345e-04	5.787345e-04	5.787345e-04	
15	1.656000e-04	5.787345e-04	5.787345e-04	5.787345e-04	
16	1.856000e-04	5.787345e-04	5.787345e-04	5.787345e-04	
17	2.056000e-04	5.787345e-04	5.787345e-04	5.787345e-04	
18	2.256000e-04	5.787345e-04	5.787345e-04	5.787345e-04	
19	2.456000e-04	5.787345e-04	5.787345e-04	5.787345e-04	
20	2.656000e-04	5.787345e-04	5.787345e-04	5.787345e-04	
21	2.856000e-04	5.787345e-04	5.787345e-04	5.787345e-04	
22	3.056000e-04	5.787345e-04	5.787345e-04	5.787345e-04	
23	3.256000e-04	5.787345e-04	5.787345e-04	5.787345e-04	
24	3.456000e-04	5.787345e-04	5.787345e-04	5.787345e-04	
25	3.656000e-04	5.787345e-04	5.787345e-04	5.787345e-04	
26	3.856000e-04	5.787345e-04	5.787345e-04	5.787345e-04	
27	4.056000e-04	5.787345e-04	5.787345e-04	5.787345e-04	
28	4.256000e-04	5.787345e-04	5.787345e-04	5.787345e-04	
29	4.456000e-04	5.787345e-04	5.787345e-04	5.787345e-04	
30	4.656000e-04	5.787345e-04	5.787345e-04	5.787345e-04	
31	4.856000e-04	5.787345e-04	5.787345e-04	5.787345e-04	
32	5.056000e-04	5.787345e-04	5.787345e-04	5.787345e-04	
33	5.256000e-04	5.787345e-04	5.787345e-04	5.787345e-04	
34	5.456000e-04	5.787345e-04	5.787345e-04	5.787345e-04	
35	5.656000e-04	5.787345e-04	5.787345e-04	5.787345e-04	
36	5.856000e-04	5.787345e-04	5.787345e-04	5.787345e-04	
37	6.056000e-04	5.787345e-04	5.787345e-04	5.787345e-04	
38	6.256000e-04	5.787345e-04	5.787345e-04	5.787345e-04	
39	6.456000e-04	5.787345e-04	5.787345e-04	5.787345e-04	
40	6.656000e-04	5.787345e-04	5.787345e-04	5.787345e-04	
41	6.856000e-04	5.787345e-04	5.787345e-04	5.787345e-04	
42	7.056000e-04	5.787345e-04	5.787345e-04	5.787345e-04	
43	7.256000e-04	5.787345e-04	5.787345e-04	5.787345e-04	
44	7.456000e-04	5.787345e-04	5.787345e-04	5.787345e-04	
45	7.656000e-04	5.787345e-04	5.787345e-04	5.787345e-04	
46	7.856000e-04	5.787345e-04	5.787345e-04	5.787345e-04	
47	8.056000e-04	5.787345e-04	5.787345e-04	5.787345e-04	
48	8.256000e-04	5.787345e-04	5.787345e-04	5.787345e-04	
49	8.456000e-04	5.787345e-04	5.787345e-04	5.787345e-04	
50	8.656000e-04	5.787345e-04	5.787345e-04	5.787345e-04	
51	8.856000e-04	5.787345e-04	5.787345e-04	5.787345e-04	
52	9.056000e-04	5.787345e-04	5.787345e-04	5.787345e-04	
53	9.256000e-04	5.787345e-04	5.787345e-04	5.787345e-04	
54	9.456000e-04	5.787345e-04	5.787345e-04	5.787345e-04	

Index   time            v(gcore)        v(gio)          v(gan)          
--------------------------------------------------------------------------------
55	9.656000e-04	5.787345e-04	5.787345e-04	5.787345e-04	
56	9.856000e-04	5.787345e-04	5.787345e-04	5.787345e-04	
57	1.000000e-03	5.787345e-04	5.787345e-04	5.787345e-04	
58	1.002000e-03	6.605944e-04	6.605944e-04	6.605944e-04	
59	1.006000e-03	9.282520e-04	9.282520e-04	9.282520e-04	
60	1.014000e-03	5.941764e-03	5.941764e-03	5.941764e-03	
61	1.020000e-03	3.300000e+00	3.300000e+00	3.300000e+00	
62	1.021411e-03	3.300000e+00	3.300000e+00	3.300000e+00	
63	1.024233e-03	3.300000e+00	3.300000e+00	3.300000e+00	
64	1.029285e-03	3.300000e+00	3.300000e+00	3.300000e+00	
65	1.035274e-03	3.300000e+00	3.300000e+00	3.300000e+00	
66	1.042868e-03	3.300000e+00	3.300000e+00	3.300000e+00	
67	1.056103e-03	3.300000e+00	3.300000e+00	3.300000e+00	
68	1.075985e-03	3.300000e+00	3.300000e+00	3.300000e+00	
69	1.095985e-03	3.300000e+00	3.300000e+00	3.300000e+00	
70	1.115985e-03	3.300000e+00	3.300000e+00	3.300000e+00	
71	1.135985e-03	3.300000e+00	3.300000e+00	3.300000e+00	
72	1.155985e-03	3.300000e+00	3.300000e+00	3.300000e+00	
73	1.175985e-03	3.300000e+00	3.300000e+00	3.300000e+00	
74	1.195985e-03	3.300000e+00	3.300000e+00	3.300000e+00	
75	1.215985e-03	3.300000e+00	3.300000e+00	3.300000e+00	
76	1.235985e-03	3.300000e+00	3.300000e+00	3.300000e+00	
77	1.255985e-03	3.300000e+00	3.300000e+00	3.300000e+00	
78	1.275985e-03	3.300000e+00	3.300000e+00	3.300000e+00	
79	1.295985e-03	3.300000e+00	3.300000e+00	3.300000e+00	
80	1.315985e-03	3.300000e+00	3.300000e+00	3.300000e+00	
81	1.335985e-03	3.300000e+00	3.300000e+00	3.300000e+00	
82	1.355985e-03	3.300000e+00	3.300000e+00	3.300000e+00	
83	1.375985e-03	3.300000e+00	3.300000e+00	3.300000e+00	
84	1.395985e-03	3.300000e+00	3.300000e+00	3.300000e+00	
85	1.415985e-03	3.300000e+00	3.300000e+00	3.300000e+00	
86	1.435985e-03	3.300000e+00	3.300000e+00	3.300000e+00	
87	1.455985e-03	3.300000e+00	3.300000e+00	3.300000e+00	
88	1.475985e-03	3.300000e+00	3.300000e+00	3.300000e+00	
89	1.495985e-03	3.300000e+00	3.300000e+00	3.300000e+00	
90	1.515985e-03	3.300000e+00	3.300000e+00	3.300000e+00	
91	1.535985e-03	3.300000e+00	3.300000e+00	3.300000e+00	
92	1.555985e-03	3.300000e+00	3.300000e+00	3.300000e+00	
93	1.575985e-03	3.300000e+00	3.300000e+00	3.300000e+00	
94	1.595985e-03	3.300000e+00	3.300000e+00	3.300000e+00	
95	1.615985e-03	3.300000e+00	3.300000e+00	3.300000e+00	
96	1.635985e-03	3.300000e+00	3.300000e+00	3.300000e+00	
97	1.655985e-03	3.300000e+00	3.300000e+00	3.300000e+00	
98	1.675985e-03	3.300000e+00	3.300000e+00	3.300000e+00	
99	1.695985e-03	3.300000e+00	3.300000e+00	3.300000e+00	
100	1.715985e-03	3.300000e+00	3.300000e+00	3.300000e+00	
101	1.735985e-03	3.300000e+00	3.300000e+00	3.300000e+00	
102	1.755985e-03	3.300000e+00	3.300000e+00	3.300000e+00	
103	1.775985e-03	3.300000e+00	3.300000e+00	3.300000e+00	
104	1.795985e-03	3.300000e+00	3.300000e+00	3.300000e+00	
105	1.815985e-03	3.300000e+00	3.300000e+00	3.300000e+00	
106	1.835985e-03	3.300000e+00	3.300000e+00	3.300000e+00	
107	1.855985e-03	3.300000e+00	3.300000e+00	3.300000e+00	
108	1.875985e-03	3.300000e+00	3.300000e+00	3.300000e+00	
109	1.895985e-03	3.300000e+00	3.300000e+00	3.300000e+00	
110	1.915985e-03	3.300000e+00	3.300000e+00	3.300000e+00	
111	1.935985e-03	3.300000e+00	3.300000e+00	3.300000e+00	
112	1.955985e-03	3.300000e+00	3.300000e+00	3.300000e+00	

Index   time            v(gcore)        v(gio)          v(gan)          
--------------------------------------------------------------------------------
113	1.975985e-03	3.300000e+00	3.300000e+00	3.300000e+00	
114	1.995985e-03	3.300000e+00	3.300000e+00	3.300000e+00	
115	2.015985e-03	3.300000e+00	3.300000e+00	3.300000e+00	
116	2.035985e-03	3.300000e+00	3.300000e+00	3.300000e+00	
117	2.055985e-03	3.300000e+00	3.300000e+00	3.300000e+00	
118	2.075985e-03	3.300000e+00	3.300000e+00	3.300000e+00	
119	2.095985e-03	3.300000e+00	3.300000e+00	3.300000e+00	
120	2.115985e-03	3.300000e+00	3.300000e+00	3.300000e+00	
121	2.135985e-03	3.300000e+00	3.300000e+00	3.300000e+00	
122	2.155985e-03	3.300000e+00	3.300000e+00	3.300000e+00	
123	2.175985e-03	3.300000e+00	3.300000e+00	3.300000e+00	
124	2.195985e-03	3.300000e+00	3.300000e+00	3.300000e+00	
125	2.215985e-03	3.300000e+00	3.300000e+00	3.300000e+00	
126	2.235985e-03	3.300000e+00	3.300000e+00	3.300000e+00	
127	2.255985e-03	3.300000e+00	3.300000e+00	3.300000e+00	
128	2.275985e-03	3.300000e+00	3.300000e+00	3.300000e+00	
129	2.295985e-03	3.300000e+00	3.300000e+00	3.300000e+00	
130	2.315985e-03	3.300000e+00	3.300000e+00	3.300000e+00	
131	2.335985e-03	3.300000e+00	3.300000e+00	3.300000e+00	
132	2.355985e-03	3.300000e+00	3.300000e+00	3.300000e+00	
133	2.375985e-03	3.300000e+00	3.300000e+00	3.300000e+00	
134	2.395985e-03	3.300000e+00	3.300000e+00	3.300000e+00	
135	2.415985e-03	3.300000e+00	3.300000e+00	3.300000e+00	
136	2.435985e-03	3.300000e+00	3.300000e+00	3.300000e+00	
137	2.455985e-03	3.300000e+00	3.300000e+00	3.300000e+00	
138	2.475985e-03	3.300000e+00	3.300000e+00	3.300000e+00	
139	2.495985e-03	3.300000e+00	3.300000e+00	3.300000e+00	
140	2.515985e-03	3.300000e+00	3.300000e+00	3.300000e+00	
141	2.535985e-03	3.300000e+00	3.300000e+00	3.300000e+00	
142	2.555985e-03	3.300000e+00	3.300000e+00	3.300000e+00	
143	2.575985e-03	3.300000e+00	3.300000e+00	3.300000e+00	
144	2.595985e-03	3.300000e+00	3.300000e+00	3.300000e+00	
145	2.615985e-03	3.300000e+00	3.300000e+00	3.300000e+00	
146	2.635985e-03	3.300000e+00	3.300000e+00	3.300000e+00	
147	2.655985e-03	3.300000e+00	3.300000e+00	3.300000e+00	
148	2.675985e-03	3.300000e+00	3.300000e+00	3.300000e+00	
149	2.695985e-03	3.300000e+00	3.300000e+00	3.300000e+00	
150	2.715985e-03	3.300000e+00	3.300000e+00	3.300000e+00	
151	2.735985e-03	3.300000e+00	3.300000e+00	3.300000e+00	
152	2.755985e-03	3.300000e+00	3.300000e+00	3.300000e+00	
153	2.775985e-03	3.300000e+00	3.300000e+00	3.300000e+00	
154	2.795985e-03	3.300000e+00	3.300000e+00	3.300000e+00	
155	2.815985e-03	3.300000e+00	3.300000e+00	3.300000e+00	
156	2.835985e-03	3.300000e+00	3.300000e+00	3.300000e+00	
157	2.855985e-03	3.300000e+00	3.300000e+00	3.300000e+00	
158	2.875985e-03	3.300000e+00	3.300000e+00	3.300000e+00	
159	2.895985e-03	3.300000e+00	3.300000e+00	3.300000e+00	
160	2.915985e-03	3.300000e+00	3.300000e+00	3.300000e+00	
161	2.935985e-03	3.300000e+00	3.300000e+00	3.300000e+00	
162	2.955985e-03	3.300000e+00	3.300000e+00	3.300000e+00	
163	2.975985e-03	3.300000e+00	3.300000e+00	3.300000e+00	
164	2.995985e-03	3.300000e+00	3.300000e+00	3.300000e+00	
165	3.015985e-03	3.300000e+00	3.300000e+00	3.300000e+00	
166	3.035985e-03	3.300000e+00	3.300000e+00	3.300000e+00	
167	3.055985e-03	3.300000e+00	3.300000e+00	3.300000e+00	
168	3.075985e-03	3.300000e+00	3.300000e+00	3.300000e+00	
169	3.095985e-03	3.300000e+00	3.300000e+00	3.300000e+00	
170	3.115985e-03	3.300000e+00	3.300000e+00	3.300000e+00	

Index   time            v(gcore)        v(gio)          v(gan)          
--------------------------------------------------------------------------------
171	3.135985e-03	3.300000e+00	3.300000e+00	3.300000e+00	
172	3.155985e-03	3.300000e+00	3.300000e+00	3.300000e+00	
173	3.175985e-03	3.300000e+00	3.300000e+00	3.300000e+00	
174	3.195985e-03	3.300000e+00	3.300000e+00	3.300000e+00	
175	3.215985e-03	3.300000e+00	3.300000e+00	3.300000e+00	
176	3.235985e-03	3.300000e+00	3.300000e+00	3.300000e+00	
177	3.255985e-03	3.300000e+00	3.300000e+00	3.300000e+00	
178	3.275985e-03	3.300000e+00	3.300000e+00	3.300000e+00	
179	3.295985e-03	3.300000e+00	3.300000e+00	3.300000e+00	
180	3.315985e-03	3.300000e+00	3.300000e+00	3.300000e+00	
181	3.335985e-03	3.300000e+00	3.300000e+00	3.300000e+00	
182	3.355985e-03	3.300000e+00	3.300000e+00	3.300000e+00	
183	3.375985e-03	3.300000e+00	3.300000e+00	3.300000e+00	
184	3.395985e-03	3.300000e+00	3.300000e+00	3.300000e+00	
185	3.415985e-03	3.300000e+00	3.300000e+00	3.300000e+00	
186	3.435985e-03	3.300000e+00	3.300000e+00	3.300000e+00	
187	3.455985e-03	3.300000e+00	3.300000e+00	3.300000e+00	
188	3.475985e-03	3.300000e+00	3.300000e+00	3.300000e+00	
189	3.495985e-03	3.300000e+00	3.300000e+00	3.300000e+00	
190	3.515985e-03	3.300000e+00	3.300000e+00	3.300000e+00	
191	3.535985e-03	3.300000e+00	3.300000e+00	3.300000e+00	
192	3.555985e-03	3.300000e+00	3.300000e+00	3.300000e+00	
193	3.575985e-03	3.300000e+00	3.300000e+00	3.300000e+00	
194	3.595985e-03	3.300000e+00	3.300000e+00	3.300000e+00	
195	3.615985e-03	3.300000e+00	3.300000e+00	3.300000e+00	
196	3.635985e-03	3.300000e+00	3.300000e+00	3.300000e+00	
197	3.655985e-03	3.300000e+00	3.300000e+00	3.300000e+00	
198	3.675985e-03	3.300000e+00	3.300000e+00	3.300000e+00	
199	3.695985e-03	3.300000e+00	3.300000e+00	3.300000e+00	
200	3.715985e-03	3.300000e+00	3.300000e+00	3.300000e+00	
201	3.735985e-03	3.300000e+00	3.300000e+00	3.300000e+00	
202	3.755985e-03	3.300000e+00	3.300000e+00	3.300000e+00	
203	3.775985e-03	3.300000e+00	3.300000e+00	3.300000e+00	
204	3.795985e-03	3.300000e+00	3.300000e+00	3.300000e+00	
205	3.815985e-03	3.300000e+00	3.300000e+00	3.300000e+00	
206	3.835985e-03	3.300000e+00	3.300000e+00	3.300000e+00	
207	3.855985e-03	3.300000e+00	3.300000e+00	3.300000e+00	
208	3.875985e-03	3.300000e+00	3.300000e+00	3.300000e+00	
209	3.895985e-03	3.300000e+00	3.300000e+00	3.300000e+00	
210	3.915985e-03	3.300000e+00	3.300000e+00	3.300000e+00	
211	3.935985e-03	3.300000e+00	3.300000e+00	3.300000e+00	
212	3.955985e-03	3.300000e+00	3.300000e+00	3.300000e+00	
213	3.975985e-03	3.300000e+00	3.300000e+00	3.300000e+00	
214	3.995985e-03	3.300000e+00	3.300000e+00	3.300000e+00	
215	4.015985e-03	3.300000e+00	3.300000e+00	3.300000e+00	
216	4.035985e-03	3.300000e+00	3.300000e+00	3.300000e+00	
217	4.055985e-03	3.300000e+00	3.300000e+00	3.300000e+00	
218	4.075985e-03	3.300000e+00	3.300000e+00	3.300000e+00	
219	4.095985e-03	3.300000e+00	3.300000e+00	3.300000e+00	
220	4.115985e-03	3.300000e+00	3.300000e+00	3.300000e+00	
221	4.135985e-03	3.300000e+00	3.300000e+00	3.300000e+00	
222	4.155985e-03	3.300000e+00	3.300000e+00	3.300000e+00	
223	4.175985e-03	3.300000e+00	3.300000e+00	3.300000e+00	
224	4.195985e-03	3.300000e+00	3.300000e+00	3.300000e+00	
225	4.215985e-03	3.300000e+00	3.300000e+00	3.300000e+00	
226	4.235985e-03	3.300000e+00	3.300000e+00	3.300000e+00	
227	4.255985e-03	3.300000e+00	3.300000e+00	3.300000e+00	
228	4.275985e-03	3.300000e+00	3.300000e+00	3.300000e+00	

Index   time            v(gcore)        v(gio)          v(gan)          
--------------------------------------------------------------------------------
229	4.295985e-03	3.300000e+00	3.300000e+00	3.300000e+00	
230	4.315985e-03	3.300000e+00	3.300000e+00	3.300000e+00	
231	4.335985e-03	3.300000e+00	3.300000e+00	3.300000e+00	
232	4.355985e-03	3.300000e+00	3.300000e+00	3.300000e+00	
233	4.375985e-03	3.300000e+00	3.300000e+00	3.300000e+00	
234	4.395985e-03	3.300000e+00	3.300000e+00	3.300000e+00	
235	4.415985e-03	3.300000e+00	3.300000e+00	3.300000e+00	
236	4.435985e-03	3.300000e+00	3.300000e+00	3.300000e+00	
237	4.455985e-03	3.300000e+00	3.300000e+00	3.300000e+00	
238	4.475985e-03	3.300000e+00	3.300000e+00	3.300000e+00	
239	4.495985e-03	3.300000e+00	3.300000e+00	3.300000e+00	
240	4.515985e-03	3.300000e+00	3.300000e+00	3.300000e+00	
241	4.535985e-03	3.300000e+00	3.300000e+00	3.300000e+00	
242	4.555985e-03	3.300000e+00	3.300000e+00	3.300000e+00	
243	4.575985e-03	3.300000e+00	3.300000e+00	3.300000e+00	
244	4.595985e-03	3.300000e+00	3.300000e+00	3.300000e+00	
245	4.615985e-03	3.300000e+00	3.300000e+00	3.300000e+00	
246	4.635985e-03	3.300000e+00	3.300000e+00	3.300000e+00	
247	4.655985e-03	3.300000e+00	3.300000e+00	3.300000e+00	
248	4.675985e-03	3.300000e+00	3.300000e+00	3.300000e+00	
249	4.695985e-03	3.300000e+00	3.300000e+00	3.300000e+00	
250	4.715985e-03	3.300000e+00	3.300000e+00	3.300000e+00	
251	4.735985e-03	3.300000e+00	3.300000e+00	3.300000e+00	
252	4.755985e-03	3.300000e+00	3.300000e+00	3.300000e+00	
253	4.775985e-03	3.300000e+00	3.300000e+00	3.300000e+00	
254	4.795985e-03	3.300000e+00	3.300000e+00	3.300000e+00	
255	4.815985e-03	3.300000e+00	3.300000e+00	3.300000e+00	
256	4.835985e-03	3.300000e+00	3.300000e+00	3.300000e+00	
257	4.855985e-03	3.300000e+00	3.300000e+00	3.300000e+00	
258	4.875985e-03	3.300000e+00	3.300000e+00	3.300000e+00	
259	4.895985e-03	3.300000e+00	3.300000e+00	3.300000e+00	
260	4.915985e-03	3.300000e+00	3.300000e+00	3.300000e+00	
261	4.935985e-03	3.300000e+00	3.300000e+00	3.300000e+00	
262	4.955985e-03	3.300000e+00	3.300000e+00	3.300000e+00	
263	4.975985e-03	3.300000e+00	3.300000e+00	3.300000e+00	
264	4.995985e-03	3.300000e+00	3.300000e+00	3.300000e+00	
265	5.015985e-03	3.300000e+00	3.300000e+00	3.300000e+00	
266	5.035985e-03	3.300000e+00	3.300000e+00	3.300000e+00	
267	5.055985e-03	3.300000e+00	3.300000e+00	3.300000e+00	
268	5.075985e-03	3.300000e+00	3.300000e+00	3.300000e+00	
269	5.095985e-03	3.300000e+00	3.300000e+00	3.300000e+00	
270	5.115985e-03	3.300000e+00	3.300000e+00	3.300000e+00	
271	5.135985e-03	3.300000e+00	3.300000e+00	3.300000e+00	
272	5.155985e-03	3.300000e+00	3.300000e+00	3.300000e+00	
273	5.175985e-03	3.300000e+00	3.300000e+00	3.300000e+00	
274	5.195985e-03	3.300000e+00	3.300000e+00	3.300000e+00	
275	5.215985e-03	3.300000e+00	3.300000e+00	3.300000e+00	
276	5.235985e-03	3.300000e+00	3.300000e+00	3.300000e+00	
277	5.255985e-03	3.300000e+00	3.300000e+00	3.300000e+00	
278	5.275985e-03	3.300000e+00	3.300000e+00	3.300000e+00	
279	5.295985e-03	3.300000e+00	3.300000e+00	3.300000e+00	
280	5.315985e-03	3.300000e+00	3.300000e+00	3.300000e+00	
281	5.335985e-03	3.300000e+00	3.300000e+00	3.300000e+00	
282	5.355985e-03	3.300000e+00	3.300000e+00	3.300000e+00	
283	5.375985e-03	3.300000e+00	3.300000e+00	3.300000e+00	
284	5.395985e-03	3.300000e+00	3.300000e+00	3.300000e+00	
285	5.415985e-03	3.300000e+00	3.300000e+00	3.300000e+00	
286	5.435985e-03	3.300000e+00	3.300000e+00	3.300000e+00	

Index   time            v(gcore)        v(gio)          v(gan)          
--------------------------------------------------------------------------------
287	5.455985e-03	3.300000e+00	3.300000e+00	3.300000e+00	
288	5.475985e-03	3.300000e+00	3.300000e+00	3.300000e+00	
289	5.495985e-03	3.300000e+00	3.300000e+00	3.300000e+00	
290	5.515985e-03	3.300000e+00	3.300000e+00	3.300000e+00	
291	5.535985e-03	3.300000e+00	3.300000e+00	3.300000e+00	
292	5.555985e-03	3.300000e+00	3.300000e+00	3.300000e+00	
293	5.575985e-03	3.300000e+00	3.300000e+00	3.300000e+00	
294	5.595985e-03	3.300000e+00	3.300000e+00	3.300000e+00	
295	5.615985e-03	3.300000e+00	3.300000e+00	3.300000e+00	
296	5.635985e-03	3.300000e+00	3.300000e+00	3.300000e+00	
297	5.655985e-03	3.300000e+00	3.300000e+00	3.300000e+00	
298	5.675985e-03	3.300000e+00	3.300000e+00	3.300000e+00	
299	5.695985e-03	3.300000e+00	3.300000e+00	3.300000e+00	
300	5.715985e-03	3.300000e+00	3.300000e+00	3.300000e+00	
301	5.735985e-03	3.300000e+00	3.300000e+00	3.300000e+00	
302	5.755985e-03	3.300000e+00	3.300000e+00	3.300000e+00	
303	5.775985e-03	3.300000e+00	3.300000e+00	3.300000e+00	
304	5.795985e-03	3.300000e+00	3.300000e+00	3.300000e+00	
305	5.815985e-03	3.300000e+00	3.300000e+00	3.300000e+00	
306	5.835985e-03	3.300000e+00	3.300000e+00	3.300000e+00	
307	5.855985e-03	3.300000e+00	3.300000e+00	3.300000e+00	
308	5.875985e-03	3.300000e+00	3.300000e+00	3.300000e+00	
309	5.895985e-03	3.300000e+00	3.300000e+00	3.300000e+00	
310	5.915985e-03	3.300000e+00	3.300000e+00	3.300000e+00	
311	5.935985e-03	3.300000e+00	3.300000e+00	3.300000e+00	
312	5.955985e-03	3.300000e+00	3.300000e+00	3.300000e+00	
313	5.975985e-03	3.300000e+00	3.300000e+00	3.300000e+00	
314	5.995985e-03	3.300000e+00	3.300000e+00	3.300000e+00	
315	6.015985e-03	3.300000e+00	3.300000e+00	3.300000e+00	
316	6.035985e-03	3.300000e+00	3.300000e+00	3.300000e+00	
317	6.055985e-03	3.300000e+00	3.300000e+00	3.300000e+00	
318	6.075985e-03	3.300000e+00	3.300000e+00	3.300000e+00	
319	6.095985e-03	3.300000e+00	3.300000e+00	3.300000e+00	
320	6.115985e-03	3.300000e+00	3.300000e+00	3.300000e+00	
321	6.135985e-03	3.300000e+00	3.300000e+00	3.300000e+00	
322	6.155985e-03	3.300000e+00	3.300000e+00	3.300000e+00	
323	6.175985e-03	3.300000e+00	3.300000e+00	3.300000e+00	
324	6.195985e-03	3.300000e+00	3.300000e+00	3.300000e+00	
325	6.215985e-03	3.300000e+00	3.300000e+00	3.300000e+00	
326	6.235985e-03	3.300000e+00	3.300000e+00	3.300000e+00	
327	6.255985e-03	3.300000e+00	3.300000e+00	3.300000e+00	
328	6.275985e-03	3.300000e+00	3.300000e+00	3.300000e+00	
329	6.295985e-03	3.300000e+00	3.300000e+00	3.300000e+00	
330	6.315985e-03	3.300000e+00	3.300000e+00	3.300000e+00	
331	6.335985e-03	3.300000e+00	3.300000e+00	3.300000e+00	
332	6.355985e-03	3.300000e+00	3.300000e+00	3.300000e+00	
333	6.375985e-03	3.300000e+00	3.300000e+00	3.300000e+00	
334	6.395985e-03	3.300000e+00	3.300000e+00	3.300000e+00	
335	6.415985e-03	3.300000e+00	3.300000e+00	3.300000e+00	
336	6.435985e-03	3.300000e+00	3.300000e+00	3.300000e+00	
337	6.455985e-03	3.300000e+00	3.300000e+00	3.300000e+00	
338	6.475985e-03	3.300000e+00	3.300000e+00	3.300000e+00	
339	6.495985e-03	3.300000e+00	3.300000e+00	3.300000e+00	
340	6.515985e-03	3.300000e+00	3.300000e+00	3.300000e+00	
341	6.535985e-03	3.300000e+00	3.300000e+00	3.300000e+00	
342	6.555985e-03	3.300000e+00	3.300000e+00	3.300000e+00	
343	6.575985e-03	3.300000e+00	3.300000e+00	3.300000e+00	
344	6.595985e-03	3.300000e+00	3.300000e+00	3.300000e+00	

Index   time            v(gcore)        v(gio)          v(gan)          
--------------------------------------------------------------------------------
345	6.615985e-03	3.300000e+00	3.300000e+00	3.300000e+00	
346	6.635985e-03	3.300000e+00	3.300000e+00	3.300000e+00	
347	6.655985e-03	3.300000e+00	3.300000e+00	3.300000e+00	
348	6.675985e-03	3.300000e+00	3.300000e+00	3.300000e+00	
349	6.695985e-03	3.300000e+00	3.300000e+00	3.300000e+00	
350	6.715985e-03	3.300000e+00	3.300000e+00	3.300000e+00	
351	6.735985e-03	3.300000e+00	3.300000e+00	3.300000e+00	
352	6.755985e-03	3.300000e+00	3.300000e+00	3.300000e+00	
353	6.775985e-03	3.300000e+00	3.300000e+00	3.300000e+00	
354	6.795985e-03	3.300000e+00	3.300000e+00	3.300000e+00	
355	6.815985e-03	3.300000e+00	3.300000e+00	3.300000e+00	
356	6.835985e-03	3.300000e+00	3.300000e+00	3.300000e+00	
357	6.855985e-03	3.300000e+00	3.300000e+00	3.300000e+00	
358	6.875985e-03	3.300000e+00	3.300000e+00	3.300000e+00	
359	6.895985e-03	3.300000e+00	3.300000e+00	3.300000e+00	
360	6.915985e-03	3.300000e+00	3.300000e+00	3.300000e+00	
361	6.935985e-03	3.300000e+00	3.300000e+00	3.300000e+00	
362	6.955985e-03	3.300000e+00	3.300000e+00	3.300000e+00	
363	6.975985e-03	3.300000e+00	3.300000e+00	3.300000e+00	
364	6.995985e-03	3.300000e+00	3.300000e+00	3.300000e+00	
365	7.015985e-03	3.300000e+00	3.300000e+00	3.300000e+00	
366	7.035985e-03	3.300000e+00	3.300000e+00	3.300000e+00	
367	7.055985e-03	3.300000e+00	3.300000e+00	3.300000e+00	
368	7.075985e-03	3.300000e+00	3.300000e+00	3.300000e+00	
369	7.095985e-03	3.300000e+00	3.300000e+00	3.300000e+00	
370	7.115985e-03	3.300000e+00	3.300000e+00	3.300000e+00	
371	7.135985e-03	3.300000e+00	3.300000e+00	3.300000e+00	
372	7.155985e-03	3.300000e+00	3.300000e+00	3.300000e+00	
373	7.175985e-03	3.300000e+00	3.300000e+00	3.300000e+00	
374	7.195985e-03	3.300000e+00	3.300000e+00	3.300000e+00	
375	7.215985e-03	3.300000e+00	3.300000e+00	3.300000e+00	
376	7.235985e-03	3.300000e+00	3.300000e+00	3.300000e+00	
377	7.255985e-03	3.300000e+00	3.300000e+00	3.300000e+00	
378	7.275985e-03	3.300000e+00	3.300000e+00	3.300000e+00	
379	7.295985e-03	3.300000e+00	3.300000e+00	3.300000e+00	
380	7.315985e-03	3.300000e+00	3.300000e+00	3.300000e+00	
381	7.335985e-03	3.300000e+00	3.300000e+00	3.300000e+00	
382	7.355985e-03	3.300000e+00	3.300000e+00	3.300000e+00	
383	7.375985e-03	3.300000e+00	3.300000e+00	3.300000e+00	
384	7.395985e-03	3.300000e+00	3.300000e+00	3.300000e+00	
385	7.415985e-03	3.300000e+00	3.300000e+00	3.300000e+00	
386	7.435985e-03	3.300000e+00	3.300000e+00	3.300000e+00	
387	7.455985e-03	3.300000e+00	3.300000e+00	3.300000e+00	
388	7.475985e-03	3.300000e+00	3.300000e+00	3.300000e+00	
389	7.495985e-03	3.300000e+00	3.300000e+00	3.300000e+00	
390	7.515985e-03	3.300000e+00	3.300000e+00	3.300000e+00	
391	7.535985e-03	3.300000e+00	3.300000e+00	3.300000e+00	
392	7.555985e-03	3.300000e+00	3.300000e+00	3.300000e+00	
393	7.575985e-03	3.300000e+00	3.300000e+00	3.300000e+00	
394	7.595985e-03	3.300000e+00	3.300000e+00	3.300000e+00	
395	7.615985e-03	3.300000e+00	3.300000e+00	3.300000e+00	
396	7.635985e-03	3.300000e+00	3.300000e+00	3.300000e+00	
397	7.655985e-03	3.300000e+00	3.300000e+00	3.300000e+00	
398	7.675985e-03	3.300000e+00	3.300000e+00	3.300000e+00	
399	7.695985e-03	3.300000e+00	3.300000e+00	3.300000e+00	
400	7.715985e-03	3.300000e+00	3.300000e+00	3.300000e+00	
401	7.735985e-03	3.300000e+00	3.300000e+00	3.300000e+00	
402	7.755985e-03	3.300000e+00	3.300000e+00	3.300000e+00	

Index   time            v(gcore)        v(gio)          v(gan)          
--------------------------------------------------------------------------------
403	7.775985e-03	3.300000e+00	3.300000e+00	3.300000e+00	
404	7.795985e-03	3.300000e+00	3.300000e+00	3.300000e+00	
405	7.815985e-03	3.300000e+00	3.300000e+00	3.300000e+00	
406	7.835985e-03	3.300000e+00	3.300000e+00	3.300000e+00	
407	7.855985e-03	3.300000e+00	3.300000e+00	3.300000e+00	
408	7.875985e-03	3.300000e+00	3.300000e+00	3.300000e+00	
409	7.895985e-03	3.300000e+00	3.300000e+00	3.300000e+00	
410	7.915985e-03	3.300000e+00	3.300000e+00	3.300000e+00	
411	7.935985e-03	3.300000e+00	3.300000e+00	3.300000e+00	
412	7.955985e-03	3.300000e+00	3.300000e+00	3.300000e+00	
413	7.975985e-03	3.300000e+00	3.300000e+00	3.300000e+00	
414	7.995985e-03	3.300000e+00	3.300000e+00	3.300000e+00	
415	8.015985e-03	3.300000e+00	3.300000e+00	3.300000e+00	
416	8.035985e-03	3.300000e+00	3.300000e+00	3.300000e+00	
417	8.055985e-03	3.300000e+00	3.300000e+00	3.300000e+00	
418	8.075985e-03	3.300000e+00	3.300000e+00	3.300000e+00	
419	8.095985e-03	3.300000e+00	3.300000e+00	3.300000e+00	
420	8.115985e-03	3.300000e+00	3.300000e+00	3.300000e+00	
421	8.135985e-03	3.300000e+00	3.300000e+00	3.300000e+00	
422	8.155985e-03	3.300000e+00	3.300000e+00	3.300000e+00	
423	8.175985e-03	3.300000e+00	3.300000e+00	3.300000e+00	
424	8.195985e-03	3.300000e+00	3.300000e+00	3.300000e+00	
425	8.215985e-03	3.300000e+00	3.300000e+00	3.300000e+00	
426	8.235985e-03	3.300000e+00	3.300000e+00	3.300000e+00	
427	8.255985e-03	3.300000e+00	3.300000e+00	3.300000e+00	
428	8.275985e-03	3.300000e+00	3.300000e+00	3.300000e+00	
429	8.295985e-03	3.300000e+00	3.300000e+00	3.300000e+00	
430	8.315985e-03	3.300000e+00	3.300000e+00	3.300000e+00	
431	8.335985e-03	3.300000e+00	3.300000e+00	3.300000e+00	
432	8.355985e-03	3.300000e+00	3.300000e+00	3.300000e+00	
433	8.375985e-03	3.300000e+00	3.300000e+00	3.300000e+00	
434	8.395985e-03	3.300000e+00	3.300000e+00	3.300000e+00	
435	8.415985e-03	3.300000e+00	3.300000e+00	3.300000e+00	
436	8.435985e-03	3.300000e+00	3.300000e+00	3.300000e+00	
437	8.455985e-03	3.300000e+00	3.300000e+00	3.300000e+00	
438	8.475985e-03	3.300000e+00	3.300000e+00	3.300000e+00	
439	8.495985e-03	3.300000e+00	3.300000e+00	3.300000e+00	
440	8.515985e-03	3.300000e+00	3.300000e+00	3.300000e+00	
441	8.535985e-03	3.300000e+00	3.300000e+00	3.300000e+00	
442	8.555985e-03	3.300000e+00	3.300000e+00	3.300000e+00	
443	8.575985e-03	3.300000e+00	3.300000e+00	3.300000e+00	
444	8.595985e-03	3.300000e+00	3.300000e+00	3.300000e+00	
445	8.615985e-03	3.300000e+00	3.300000e+00	3.300000e+00	
446	8.635985e-03	3.300000e+00	3.300000e+00	3.300000e+00	
447	8.655985e-03	3.300000e+00	3.300000e+00	3.300000e+00	
448	8.675985e-03	3.300000e+00	3.300000e+00	3.300000e+00	
449	8.695985e-03	3.300000e+00	3.300000e+00	3.300000e+00	
450	8.715985e-03	3.300000e+00	3.300000e+00	3.300000e+00	
451	8.735985e-03	3.300000e+00	3.300000e+00	3.300000e+00	
452	8.755985e-03	3.300000e+00	3.300000e+00	3.300000e+00	
453	8.775985e-03	3.300000e+00	3.300000e+00	3.300000e+00	
454	8.795985e-03	3.300000e+00	3.300000e+00	3.300000e+00	
455	8.815985e-03	3.300000e+00	3.300000e+00	3.300000e+00	
456	8.835985e-03	3.300000e+00	3.300000e+00	3.300000e+00	
457	8.855985e-03	3.300000e+00	3.300000e+00	3.300000e+00	
458	8.875985e-03	3.300000e+00	3.300000e+00	3.300000e+00	
459	8.895985e-03	3.300000e+00	3.300000e+00	3.300000e+00	
460	8.915985e-03	3.300000e+00	3.300000e+00	3.300000e+00	

Index   time            v(gcore)        v(gio)          v(gan)          
--------------------------------------------------------------------------------
461	8.935985e-03	3.300000e+00	3.300000e+00	3.300000e+00	
462	8.955985e-03	3.300000e+00	3.300000e+00	3.300000e+00	
463	8.975985e-03	3.300000e+00	3.300000e+00	3.300000e+00	
464	8.995985e-03	3.300000e+00	3.300000e+00	3.300000e+00	
465	9.015985e-03	3.300000e+00	3.300000e+00	3.300000e+00	
466	9.035985e-03	3.300000e+00	3.300000e+00	3.300000e+00	
467	9.055985e-03	3.300000e+00	3.300000e+00	3.300000e+00	
468	9.075985e-03	3.300000e+00	3.300000e+00	3.300000e+00	
469	9.095985e-03	3.300000e+00	3.300000e+00	3.300000e+00	
470	9.115985e-03	3.300000e+00	3.300000e+00	3.300000e+00	
471	9.135985e-03	3.300000e+00	3.300000e+00	3.300000e+00	
472	9.155985e-03	3.300000e+00	3.300000e+00	3.300000e+00	
473	9.175985e-03	3.300000e+00	3.300000e+00	3.300000e+00	
474	9.195985e-03	3.300000e+00	3.300000e+00	3.300000e+00	
475	9.215985e-03	3.300000e+00	3.300000e+00	3.300000e+00	
476	9.235985e-03	3.300000e+00	3.300000e+00	3.300000e+00	
477	9.255985e-03	3.300000e+00	3.300000e+00	3.300000e+00	
478	9.275985e-03	3.300000e+00	3.300000e+00	3.300000e+00	
479	9.295985e-03	3.300000e+00	3.300000e+00	3.300000e+00	
480	9.315985e-03	3.300000e+00	3.300000e+00	3.300000e+00	
481	9.335985e-03	3.300000e+00	3.300000e+00	3.300000e+00	
482	9.355985e-03	3.300000e+00	3.300000e+00	3.300000e+00	
483	9.375985e-03	3.300000e+00	3.300000e+00	3.300000e+00	
484	9.395985e-03	3.300000e+00	3.300000e+00	3.300000e+00	
485	9.415985e-03	3.300000e+00	3.300000e+00	3.300000e+00	
486	9.435985e-03	3.300000e+00	3.300000e+00	3.300000e+00	
487	9.455985e-03	3.300000e+00	3.300000e+00	3.300000e+00	
488	9.475985e-03	3.300000e+00	3.300000e+00	3.300000e+00	
489	9.495985e-03	3.300000e+00	3.300000e+00	3.300000e+00	
490	9.515985e-03	3.300000e+00	3.300000e+00	3.300000e+00	
491	9.535985e-03	3.300000e+00	3.300000e+00	3.300000e+00	
492	9.555985e-03	3.300000e+00	3.300000e+00	3.300000e+00	
493	9.575985e-03	3.300000e+00	3.300000e+00	3.300000e+00	
494	9.595985e-03	3.300000e+00	3.300000e+00	3.300000e+00	
495	9.615985e-03	3.300000e+00	3.300000e+00	3.300000e+00	
496	9.635985e-03	3.300000e+00	3.300000e+00	3.300000e+00	
497	9.655985e-03	3.300000e+00	3.300000e+00	3.300000e+00	
498	9.675985e-03	3.300000e+00	3.300000e+00	3.300000e+00	
499	9.695985e-03	3.300000e+00	3.300000e+00	3.300000e+00	
500	9.715985e-03	3.300000e+00	3.300000e+00	3.300000e+00	
501	9.735985e-03	3.300000e+00	3.300000e+00	3.300000e+00	
502	9.755985e-03	3.300000e+00	3.300000e+00	3.300000e+00	
503	9.775985e-03	3.300000e+00	3.300000e+00	3.300000e+00	
504	9.795985e-03	3.300000e+00	3.300000e+00	3.300000e+00	
505	9.815985e-03	3.300000e+00	3.300000e+00	3.300000e+00	
506	9.835985e-03	3.300000e+00	3.300000e+00	3.300000e+00	
507	9.855985e-03	3.300000e+00	3.300000e+00	3.300000e+00	
508	9.875985e-03	3.300000e+00	3.300000e+00	3.300000e+00	
509	9.895985e-03	3.300000e+00	3.300000e+00	3.300000e+00	
510	9.915985e-03	3.300000e+00	3.300000e+00	3.300000e+00	
511	9.935985e-03	3.300000e+00	3.300000e+00	3.300000e+00	
512	9.955985e-03	3.300000e+00	3.300000e+00	3.300000e+00	
513	9.975985e-03	3.300000e+00	3.300000e+00	3.300000e+00	
514	9.995985e-03	3.300000e+00	3.300000e+00	3.300000e+00	
515	1.001599e-02	3.300000e+00	3.300000e+00	3.300000e+00	
516	1.003599e-02	3.300000e+00	3.300000e+00	3.300000e+00	
517	1.005599e-02	3.300000e+00	3.300000e+00	3.300000e+00	
518	1.007599e-02	3.300000e+00	3.300000e+00	3.300000e+00	

Index   time            v(gcore)        v(gio)          v(gan)          
--------------------------------------------------------------------------------
519	1.009599e-02	3.300000e+00	3.300000e+00	3.300000e+00	
520	1.011599e-02	3.300000e+00	3.300000e+00	3.300000e+00	
521	1.013599e-02	3.300000e+00	3.300000e+00	3.300000e+00	
522	1.015599e-02	3.300000e+00	3.300000e+00	3.300000e+00	
523	1.017599e-02	3.300000e+00	3.300000e+00	3.300000e+00	
524	1.019599e-02	3.300000e+00	3.300000e+00	3.300000e+00	
525	1.021599e-02	3.300000e+00	3.300000e+00	3.300000e+00	
526	1.023599e-02	3.300000e+00	3.300000e+00	3.300000e+00	
527	1.025599e-02	3.300000e+00	3.300000e+00	3.300000e+00	
528	1.027599e-02	3.300000e+00	3.300000e+00	3.300000e+00	
529	1.029599e-02	3.300000e+00	3.300000e+00	3.300000e+00	
530	1.031599e-02	3.300000e+00	3.300000e+00	3.300000e+00	
531	1.033599e-02	3.300000e+00	3.300000e+00	3.300000e+00	
532	1.035599e-02	3.300000e+00	3.300000e+00	3.300000e+00	
533	1.037599e-02	3.300000e+00	3.300000e+00	3.300000e+00	
534	1.039599e-02	3.300000e+00	3.300000e+00	3.300000e+00	
535	1.041599e-02	3.300000e+00	3.300000e+00	3.300000e+00	
536	1.043599e-02	3.300000e+00	3.300000e+00	3.300000e+00	
537	1.045599e-02	3.300000e+00	3.300000e+00	3.300000e+00	
538	1.047599e-02	3.300000e+00	3.300000e+00	3.300000e+00	
539	1.049599e-02	3.300000e+00	3.300000e+00	3.300000e+00	
540	1.051599e-02	3.300000e+00	3.300000e+00	3.300000e+00	
541	1.053599e-02	3.300000e+00	3.300000e+00	3.300000e+00	
542	1.055599e-02	3.300000e+00	3.300000e+00	3.300000e+00	
543	1.057599e-02	3.300000e+00	3.300000e+00	3.300000e+00	
544	1.059599e-02	3.300000e+00	3.300000e+00	3.300000e+00	
545	1.061599e-02	3.300000e+00	3.300000e+00	3.300000e+00	
546	1.063599e-02	3.300000e+00	3.300000e+00	3.300000e+00	
547	1.065599e-02	3.300000e+00	3.300000e+00	3.300000e+00	
548	1.067599e-02	3.300000e+00	3.300000e+00	3.300000e+00	
549	1.069599e-02	3.300000e+00	3.300000e+00	3.300000e+00	
550	1.071599e-02	3.300000e+00	3.300000e+00	3.300000e+00	
551	1.073599e-02	3.300000e+00	3.300000e+00	3.300000e+00	
552	1.075599e-02	3.300000e+00	3.300000e+00	3.300000e+00	
553	1.077599e-02	3.300000e+00	3.300000e+00	3.300000e+00	
554	1.079599e-02	3.300000e+00	3.300000e+00	3.300000e+00	
555	1.081599e-02	3.300000e+00	3.300000e+00	3.300000e+00	
556	1.083599e-02	3.300000e+00	3.300000e+00	3.300000e+00	
557	1.085599e-02	3.300000e+00	3.300000e+00	3.300000e+00	
558	1.087599e-02	3.300000e+00	3.300000e+00	3.300000e+00	
559	1.089599e-02	3.300000e+00	3.300000e+00	3.300000e+00	
560	1.091599e-02	3.300000e+00	3.300000e+00	3.300000e+00	
561	1.093599e-02	3.300000e+00	3.300000e+00	3.300000e+00	
562	1.095599e-02	3.300000e+00	3.300000e+00	3.300000e+00	
563	1.097599e-02	3.300000e+00	3.300000e+00	3.300000e+00	
564	1.099599e-02	3.300000e+00	3.300000e+00	3.300000e+00	
565	1.101599e-02	3.300000e+00	3.300000e+00	3.300000e+00	
566	1.103599e-02	3.300000e+00	3.300000e+00	3.300000e+00	
567	1.105599e-02	3.300000e+00	3.300000e+00	3.300000e+00	
568	1.107599e-02	3.300000e+00	3.300000e+00	3.300000e+00	
569	1.109599e-02	3.300000e+00	3.300000e+00	3.300000e+00	
570	1.111599e-02	3.300000e+00	3.300000e+00	3.300000e+00	
571	1.113599e-02	3.300000e+00	3.300000e+00	3.300000e+00	
572	1.115599e-02	3.300000e+00	3.300000e+00	3.300000e+00	
573	1.117599e-02	3.300000e+00	3.300000e+00	3.300000e+00	
574	1.119599e-02	3.300000e+00	3.300000e+00	3.300000e+00	
575	1.121599e-02	3.300000e+00	3.300000e+00	3.300000e+00	
576	1.123599e-02	3.300000e+00	3.300000e+00	3.300000e+00	

Index   time            v(gcore)        v(gio)          v(gan)          
--------------------------------------------------------------------------------
577	1.125599e-02	3.300000e+00	3.300000e+00	3.300000e+00	
578	1.127599e-02	3.300000e+00	3.300000e+00	3.300000e+00	
579	1.129599e-02	3.300000e+00	3.300000e+00	3.300000e+00	
580	1.131599e-02	3.300000e+00	3.300000e+00	3.300000e+00	
581	1.133599e-02	3.300000e+00	3.300000e+00	3.300000e+00	
582	1.135599e-02	3.300000e+00	3.300000e+00	3.300000e+00	
583	1.137599e-02	3.300000e+00	3.300000e+00	3.300000e+00	
584	1.139599e-02	3.300000e+00	3.300000e+00	3.300000e+00	
585	1.141599e-02	3.300000e+00	3.300000e+00	3.300000e+00	
586	1.143599e-02	3.300000e+00	3.300000e+00	3.300000e+00	
587	1.145599e-02	3.300000e+00	3.300000e+00	3.300000e+00	
588	1.147599e-02	3.300000e+00	3.300000e+00	3.300000e+00	
589	1.149599e-02	3.300000e+00	3.300000e+00	3.300000e+00	
590	1.151599e-02	3.300000e+00	3.300000e+00	3.300000e+00	
591	1.153599e-02	3.300000e+00	3.300000e+00	3.300000e+00	
592	1.155599e-02	3.300000e+00	3.300000e+00	3.300000e+00	
593	1.157599e-02	3.300000e+00	3.300000e+00	3.300000e+00	
594	1.159599e-02	3.300000e+00	3.300000e+00	3.300000e+00	
595	1.161599e-02	3.300000e+00	3.300000e+00	3.300000e+00	
596	1.163599e-02	3.300000e+00	3.300000e+00	3.300000e+00	
597	1.165599e-02	3.300000e+00	3.300000e+00	3.300000e+00	
598	1.167599e-02	3.300000e+00	3.300000e+00	3.300000e+00	
599	1.169599e-02	3.300000e+00	3.300000e+00	3.300000e+00	
600	1.171599e-02	3.300000e+00	3.300000e+00	3.300000e+00	
601	1.173599e-02	3.300000e+00	3.300000e+00	3.300000e+00	
602	1.175599e-02	3.300000e+00	3.300000e+00	3.300000e+00	
603	1.177599e-02	3.300000e+00	3.300000e+00	3.300000e+00	
604	1.179599e-02	3.300000e+00	3.300000e+00	3.300000e+00	
605	1.181599e-02	3.300000e+00	3.300000e+00	3.300000e+00	
606	1.183599e-02	3.300000e+00	3.300000e+00	3.300000e+00	
607	1.185599e-02	3.300000e+00	3.300000e+00	3.300000e+00	
608	1.187599e-02	3.300000e+00	3.300000e+00	3.300000e+00	
609	1.189599e-02	3.300000e+00	3.300000e+00	3.300000e+00	
610	1.191599e-02	3.300000e+00	3.300000e+00	3.300000e+00	
611	1.193599e-02	3.300000e+00	3.300000e+00	3.300000e+00	
612	1.195599e-02	3.300000e+00	3.300000e+00	3.300000e+00	
613	1.197599e-02	3.300000e+00	3.300000e+00	3.300000e+00	
614	1.199599e-02	3.300000e+00	3.300000e+00	3.300000e+00	
615	1.200000e-02	3.300000e+00	3.300000e+00	3.300000e+00	

                            tb001-ga144-test-bringup
                            Transient Analysis  Sat Jun 13 16:39:32  2026
--------------------------------------------------------------------------------
Index   time            v(vcore)        v(vio)          v(van)          
--------------------------------------------------------------------------------
0	0.000000e+00	-3.29743e-42	-3.23288e-40	-1.36336e-39	
1	2.000000e-07	-3.29659e-42	-3.23228e-40	-1.36321e-39	
2	4.000000e-07	-3.29576e-42	-3.23169e-40	-1.36306e-39	
3	8.000000e-07	-3.29410e-42	-3.23049e-40	-1.36275e-39	
4	1.600000e-06	-3.29077e-42	-3.22810e-40	-1.36215e-39	
5	3.200000e-06	-3.28413e-42	-3.22332e-40	-1.36094e-39	
6	6.400000e-06	-3.27089e-42	-3.21378e-40	-1.35852e-39	
7	1.280000e-05	-3.24456e-42	-3.19479e-40	-1.35370e-39	
8	2.560000e-05	-3.19254e-42	-3.15715e-40	-1.34411e-39	
9	4.560000e-05	-3.11293e-42	-3.09922e-40	-1.32925e-39	
10	6.560000e-05	-3.03530e-42	-3.04236e-40	-1.31457e-39	
11	8.560000e-05	-2.95961e-42	-2.98653e-40	-1.30004e-39	
12	1.056000e-04	-2.88580e-42	-2.93173e-40	-1.28568e-39	
13	1.256000e-04	-2.81384e-42	-2.87794e-40	-1.27147e-39	
14	1.456000e-04	-2.74367e-42	-2.82513e-40	-1.25742e-39	
15	1.656000e-04	-2.67525e-42	-2.77330e-40	-1.24353e-39	
16	1.856000e-04	-2.60853e-42	-2.72241e-40	-1.22978e-39	
17	2.056000e-04	-2.54348e-42	-2.67246e-40	-1.21620e-39	
18	2.256000e-04	-2.48005e-42	-2.62342e-40	-1.20276e-39	
19	2.456000e-04	-2.41821e-42	-2.57529e-40	-1.18947e-39	
20	2.656000e-04	-2.35790e-42	-2.52803e-40	-1.17632e-39	
21	2.856000e-04	-2.29910e-42	-2.48165e-40	-1.16333e-39	
22	3.056000e-04	-2.24177e-42	-2.43611e-40	-1.15047e-39	
23	3.256000e-04	-2.18586e-42	-2.39141e-40	-1.13776e-39	
24	3.456000e-04	-2.13135e-42	-2.34753e-40	-1.12519e-39	
25	3.656000e-04	-2.07820e-42	-2.30446e-40	-1.11275e-39	
26	3.856000e-04	-2.02638e-42	-2.26218e-40	-1.10046e-39	
27	4.056000e-04	-1.97584e-42	-2.22067e-40	-1.08830e-39	
28	4.256000e-04	-1.92657e-42	-2.17992e-40	-1.07627e-39	
29	4.456000e-04	-1.87853e-42	-2.13992e-40	-1.06438e-39	
30	4.656000e-04	-1.83168e-42	-2.10066e-40	-1.05262e-39	
31	4.856000e-04	-1.78600e-42	-2.06212e-40	-1.04099e-39	
32	5.056000e-04	-1.74146e-42	-2.02428e-40	-1.02949e-39	
33	5.256000e-04	-1.69803e-42	-1.98714e-40	-1.01811e-39	
34	5.456000e-04	-1.65569e-42	-1.95067e-40	-1.00686e-39	
35	5.656000e-04	-1.61440e-42	-1.91488e-40	-9.95735e-40	
36	5.856000e-04	-1.57414e-42	-1.87975e-40	-9.84732e-40	
37	6.056000e-04	-1.53489e-42	-1.84526e-40	-9.73851e-40	
38	6.256000e-04	-1.49661e-42	-1.81140e-40	-9.63091e-40	
39	6.456000e-04	-1.45929e-42	-1.77816e-40	-9.52449e-40	
40	6.656000e-04	-1.42290e-42	-1.74553e-40	-9.41924e-40	
41	6.856000e-04	-1.38741e-42	-1.71351e-40	-9.31516e-40	
42	7.056000e-04	-1.35281e-42	-1.68207e-40	-9.21223e-40	
43	7.256000e-04	-1.31908e-42	-1.65120e-40	-9.11044e-40	
44	7.456000e-04	-1.28618e-42	-1.62091e-40	-9.00977e-40	
45	7.656000e-04	-1.25411e-42	-1.59116e-40	-8.91022e-40	
46	7.856000e-04	-1.22283e-42	-1.56197e-40	-8.81176e-40	
47	8.056000e-04	-1.19234e-42	-1.53331e-40	-8.71440e-40	
48	8.256000e-04	-1.16261e-42	-1.50517e-40	-8.61810e-40	
49	8.456000e-04	-1.13361e-42	-1.47756e-40	-8.52288e-40	
50	8.656000e-04	-1.10534e-42	-1.45044e-40	-8.42870e-40	
51	8.856000e-04	-1.07778e-42	-1.42383e-40	-8.33557e-40	
52	9.056000e-04	-1.05090e-42	-1.39771e-40	-8.24346e-40	
53	9.256000e-04	-1.02469e-42	-1.37206e-40	-8.15237e-40	
54	9.456000e-04	-9.99141e-43	-1.34688e-40	-8.06229e-40	

Index   time            v(vcore)        v(vio)          v(van)          
--------------------------------------------------------------------------------
55	9.656000e-04	-9.74225e-43	-1.32217e-40	-7.97321e-40	
56	9.856000e-04	-9.49930e-43	-1.29791e-40	-7.88510e-40	
57	1.000000e-03	-9.32814e-43	-1.28072e-40	-7.82227e-40	
58	1.002000e-03	-9.30464e-43	-1.27835e-40	-7.81359e-40	
59	1.006000e-03	-9.25777e-43	-1.27363e-40	-7.79625e-40	
60	1.014000e-03	-9.16472e-43	-1.26423e-40	-7.76167e-40	
61	1.020000e-03	5.820629e-01	7.720439e-01	7.022962e-01	
62	1.021411e-03	7.779519e-01	9.935434e-01	9.172509e-01	
63	1.024233e-03	1.082823e+00	1.304334e+00	1.231604e+00	
64	1.029285e-03	1.380559e+00	1.543668e+00	1.497728e+00	
65	1.035274e-03	1.559755e+00	1.673349e+00	1.645573e+00	
66	1.042868e-03	1.667450e+00	1.737940e+00	1.724886e+00	
67	1.056103e-03	1.742484e+00	1.775621e+00	1.773892e+00	
68	1.075985e-03	1.767637e+00	1.783656e+00	1.786033e+00	
69	1.095985e-03	1.770125e+00	1.784575e+00	1.786931e+00	
70	1.115985e-03	1.770187e+00	1.784357e+00	1.786816e+00	
71	1.135985e-03	1.770324e+00	1.784594e+00	1.786999e+00	
72	1.155985e-03	1.770238e+00	1.784411e+00	1.786860e+00	
73	1.175985e-03	1.770308e+00	1.784554e+00	1.786968e+00	
74	1.195985e-03	1.770249e+00	1.784437e+00	1.786878e+00	
75	1.215985e-03	1.770295e+00	1.784530e+00	1.786949e+00	
76	1.235985e-03	1.770255e+00	1.784452e+00	1.786889e+00	
77	1.255985e-03	1.770287e+00	1.784515e+00	1.786938e+00	
78	1.275985e-03	1.770259e+00	1.784461e+00	1.786896e+00	
79	1.295985e-03	1.770282e+00	1.784506e+00	1.786931e+00	
80	1.315985e-03	1.770262e+00	1.784467e+00	1.786901e+00	
[...]
9	4.560000e-05	3.300000e+00	
10	6.560000e-05	3.300000e+00	
11	8.560000e-05	3.300000e+00	
12	1.056000e-04	3.300000e+00	
13	1.256000e-04	3.300000e+00	
14	1.456000e-04	3.300000e+00	
15	1.656000e-04	3.300000e+00	
16	1.856000e-04	3.300000e+00	
17	2.056000e-04	3.300000e+00	
18	2.256000e-04	3.300000e+00	
19	2.456000e-04	3.300000e+00	
20	2.656000e-04	3.300000e+00	
21	2.856000e-04	3.300000e+00	
22	3.056000e-04	3.300000e+00	
23	3.256000e-04	3.300000e+00	
24	3.456000e-04	3.300000e+00	
25	3.656000e-04	3.300000e+00	
26	3.856000e-04	3.300000e+00	
27	4.056000e-04	3.300000e+00	
28	4.256000e-04	3.300000e+00	
29	4.456000e-04	3.300000e+00	
30	4.656000e-04	3.300000e+00	
31	4.856000e-04	3.300000e+00	
32	5.056000e-04	3.300000e+00	
33	5.256000e-04	3.300000e+00	
34	5.456000e-04	3.300000e+00	
35	5.656000e-04	3.300000e+00	
36	5.856000e-04	3.300000e+00	
37	6.056000e-04	3.300000e+00	
38	6.256000e-04	3.300000e+00	
39	6.456000e-04	3.300000e+00	
40	6.656000e-04	3.300000e+00	
41	6.856000e-04	3.300000e+00	
42	7.056000e-04	3.300000e+00	
43	7.256000e-04	3.300000e+00	
44	7.456000e-04	3.300000e+00	
45	7.656000e-04	3.300000e+00	
46	7.856000e-04	3.300000e+00	
47	8.056000e-04	3.300000e+00	
48	8.256000e-04	3.300000e+00	
49	8.456000e-04	3.300000e+00	
50	8.656000e-04	3.300000e+00	
51	8.856000e-04	3.300000e+00	
52	9.056000e-04	3.300000e+00	
53	9.256000e-04	3.300000e+00	
54	9.456000e-04	3.300000e+00	

Index   time            v(disable)      
--------------------------------------------------------------------------------
55	9.656000e-04	3.300000e+00	
56	9.856000e-04	3.300000e+00	
57	1.000000e-03	3.300000e+00	
58	1.002000e-03	2.970000e+00	
59	1.006000e-03	2.310000e+00	
60	1.014000e-03	9.900000e-01	
61	1.020000e-03	0.000000e+00	
62	1.021411e-03	0.000000e+00	
63	1.024233e-03	0.000000e+00	
64	1.029285e-03	0.000000e+00	
65	1.035274e-03	0.000000e+00	
66	1.042868e-03	0.000000e+00	
67	1.056103e-03	0.000000e+00	
68	1.075985e-03	0.000000e+00	
69	1.095985e-03	0.000000e+00	
70	1.115985e-03	0.000000e+00	
71	1.135985e-03	0.000000e+00	
72	1.155985e-03	0.000000e+00	
73	1.175985e-03	0.000000e+00	
74	1.195985e-03	0.000000e+00	
75	1.215985e-03	0.000000e+00	
76	1.235985e-03	0.000000e+00	
77	1.255985e-03	0.000000e+00	
78	1.275985e-03	0.000000e+00	
79	1.295985e-03	0.000000e+00	
80	1.315985e-03	0.000000e+00	
81	1.335985e-03	0.000000e+00	
82	1.355985e-03	0.000000e+00	
83	1.375985e-03	0.000000e+00	
84	1.395985e-03	0.000000e+00	
85	1.415985e-03	0.000000e+00	
86	1.435985e-03	0.000000e+00	
87	1.455985e-03	0.000000e+00	
88	1.475985e-03	0.000000e+00	
89	1.495985e-03	0.000000e+00	
90	1.515985e-03	0.000000e+00	
91	1.535985e-03	0.000000e+00	
92	1.555985e-03	0.000000e+00	
93	1.575985e-03	0.000000e+00	
94	1.595985e-03	0.000000e+00	
95	1.615985e-03	0.000000e+00	
96	1.635985e-03	0.000000e+00	
97	1.655985e-03	0.000000e+00	
98	1.675985e-03	0.000000e+00	
99	1.695985e-03	0.000000e+00	
100	1.715985e-03	0.000000e+00	
101	1.735985e-03	0.000000e+00	
102	1.755985e-03	0.000000e+00	
103	1.775985e-03	0.000000e+00	
104	1.795985e-03	0.000000e+00	
105	1.815985e-03	0.000000e+00	
106	1.835985e-03	0.000000e+00	
107	1.855985e-03	0.000000e+00	
108	1.875985e-03	0.000000e+00	
109	1.895985e-03	0.000000e+00	
110	1.915985e-03	0.000000e+00	
111	1.935985e-03	0.000000e+00	
112	1.955985e-03	0.000000e+00	

Index   time            v(disable)      
--------------------------------------------------------------------------------
113	1.975985e-03	0.000000e+00	
114	1.995985e-03	0.000000e+00	
115	2.015985e-03	0.000000e+00	
116	2.035985e-03	0.000000e+00	
117	2.055985e-03	0.000000e+00	
118	2.075985e-03	0.000000e+00	
119	2.095985e-03	0.000000e+00	
120	2.115985e-03	0.000000e+00	
121	2.135985e-03	0.000000e+00	
122	2.155985e-03	0.000000e+00	
123	2.175985e-03	0.000000e+00	
124	2.195985e-03	0.000000e+00	
125	2.215985e-03	0.000000e+00	
126	2.235985e-03	0.000000e+00	
127	2.255985e-03	0.000000e+00	
128	2.275985e-03	0.000000e+00	
129	2.295985e-03	0.000000e+00	
130	2.315985e-03	0.000000e+00	
131	2.335985e-03	0.000000e+00	
132	2.355985e-03	0.000000e+00	
133	2.375985e-03	0.000000e+00	
134	2.395985e-03	0.000000e+00	
135	2.415985e-03	0.000000e+00	
136	2.435985e-03	0.000000e+00	
137	2.455985e-03	0.000000e+00	
138	2.475985e-03	0.000000e+00	
139	2.495985e-03	0.000000e+00	
140	2.515985e-03	0.000000e+00	
141	2.535985e-03	0.000000e+00	
142	2.555985e-03	0.000000e+00	
143	2.575985e-03	0.000000e+00	
144	2.595985e-03	0.000000e+00	
145	2.615985e-03	0.000000e+00	
146	2.635985e-03	0.000000e+00	
147	2.655985e-03	0.000000e+00	
148	2.675985e-03	0.000000e+00	
149	2.695985e-03	0.000000e+00	
150	2.715985e-03	0.000000e+00	
151	2.735985e-03	0.000000e+00	
152	2.755985e-03	0.000000e+00	
153	2.775985e-03	0.000000e+00	
154	2.795985e-03	0.000000e+00	
155	2.815985e-03	0.000000e+00	
156	2.835985e-03	0.000000e+00	
157	2.855985e-03	0.000000e+00	
158	2.875985e-03	0.000000e+00	
159	2.895985e-03	0.000000e+00	
160	2.915985e-03	0.000000e+00	
161	2.935985e-03	0.000000e+00	
162	2.955985e-03	0.000000e+00	
163	2.975985e-03	0.000000e+00	
164	2.995985e-03	0.000000e+00	
165	3.015985e-03	0.000000e+00	
166	3.035985e-03	0.000000e+00	
167	3.055985e-03	0.000000e+00	
168	3.075985e-03	0.000000e+00	
169	3.095985e-03	0.000000e+00	
170	3.115985e-03	0.000000e+00	

Index   time            v(disable)      
--------------------------------------------------------------------------------
171	3.135985e-03	0.000000e+00	
172	3.155985e-03	0.000000e+00	
173	3.175985e-03	0.000000e+00	
174	3.195985e-03	0.000000e+00	
175	3.215985e-03	0.000000e+00	
176	3.235985e-03	0.000000e+00	
177	3.255985e-03	0.000000e+00	
178	3.275985e-03	0.000000e+00	
179	3.295985e-03	0.000000e+00	
180	3.315985e-03	0.000000e+00	
181	3.335985e-03	0.000000e+00	
182	3.355985e-03	0.000000e+00	
183	3.375985e-03	0.000000e+00	
184	3.395985e-03	0.000000e+00	
185	3.415985e-03	0.000000e+00	
186	3.435985e-03	0.000000e+00	
187	3.455985e-03	0.000000e+00	
188	3.475985e-03	0.000000e+00	
189	3.495985e-03	0.000000e+00	
190	3.515985e-03	0.000000e+00	
191	3.535985e-03	0.000000e+00	
192	3.555985e-03	0.000000e+00	
193	3.575985e-03	0.000000e+00	
194	3.595985e-03	0.000000e+00	
195	3.615985e-03	0.000000e+00	
196	3.635985e-03	0.000000e+00	
197	3.655985e-03	0.000000e+00	
198	3.675985e-03	0.000000e+00	
199	3.695985e-03	0.000000e+00	
200	3.715985e-03	0.000000e+00	
201	3.735985e-03	0.000000e+00	
202	3.755985e-03	0.000000e+00	
203	3.775985e-03	0.000000e+00	
204	3.795985e-03	0.000000e+00	
205	3.815985e-03	0.000000e+00	
206	3.835985e-03	0.000000e+00	
207	3.855985e-03	0.000000e+00	
208	3.875985e-03	0.000000e+00	
209	3.895985e-03	0.000000e+00	
210	3.915985e-03	0.000000e+00	
211	3.935985e-03	0.000000e+00	
212	3.955985e-03	0.000000e+00	
213	3.975985e-03	0.000000e+00	
214	3.995985e-03	0.000000e+00	
215	4.015985e-03	0.000000e+00	
216	4.035985e-03	0.000000e+00	
217	4.055985e-03	0.000000e+00	
218	4.075985e-03	0.000000e+00	
219	4.095985e-03	0.000000e+00	
220	4.115985e-03	0.000000e+00	
221	4.135985e-03	0.000000e+00	
222	4.155985e-03	0.000000e+00	
223	4.175985e-03	0.000000e+00	
224	4.195985e-03	0.000000e+00	
225	4.215985e-03	0.000000e+00	
226	4.235985e-03	0.000000e+00	
227	4.255985e-03	0.000000e+00	
228	4.275985e-03	0.000000e+00	

Index   time            v(disable)      
--------------------------------------------------------------------------------
229	4.295985e-03	0.000000e+00	
230	4.315985e-03	0.000000e+00	
231	4.335985e-03	0.000000e+00	
232	4.355985e-03	0.000000e+00	
233	4.375985e-03	0.000000e+00	
234	4.395985e-03	0.000000e+00	
235	4.415985e-03	0.000000e+00	
236	4.435985e-03	0.000000e+00	
237	4.455985e-03	0.000000e+00	
238	4.475985e-03	0.000000e+00	
239	4.495985e-03	0.000000e+00	
240	4.515985e-03	0.000000e+00	
241	4.535985e-03	0.000000e+00	
242	4.555985e-03	0.000000e+00	
243	4.575985e-03	0.000000e+00	
244	4.595985e-03	0.000000e+00	
245	4.615985e-03	0.000000e+00	
246	4.635985e-03	0.000000e+00	
247	4.655985e-03	0.000000e+00	
248	4.675985e-03	0.000000e+00	
249	4.695985e-03	0.000000e+00	
250	4.715985e-03	0.000000e+00	
251	4.735985e-03	0.000000e+00	
252	4.755985e-03	0.000000e+00	
253	4.775985e-03	0.000000e+00	
254	4.795985e-03	0.000000e+00	
255	4.815985e-03	0.000000e+00	
256	4.835985e-03	0.000000e+00	
257	4.855985e-03	0.000000e+00	
258	4.875985e-03	0.000000e+00	
259	4.895985e-03	0.000000e+00	
260	4.915985e-03	0.000000e+00	
261	4.935985e-03	0.000000e+00	
262	4.955985e-03	0.000000e+00	
263	4.975985e-03	0.000000e+00	
264	4.995985e-03	0.000000e+00	
265	5.015985e-03	0.000000e+00	
266	5.035985e-03	0.000000e+00	
267	5.055985e-03	0.000000e+00	
268	5.075985e-03	0.000000e+00	
269	5.095985e-03	0.000000e+00	
270	5.115985e-03	0.000000e+00	
271	5.135985e-03	0.000000e+00	
272	5.155985e-03	0.000000e+00	
273	5.175985e-03	0.000000e+00	
274	5.195985e-03	0.000000e+00	
275	5.215985e-03	0.000000e+00	
276	5.235985e-03	0.000000e+00	
277	5.255985e-03	0.000000e+00	
278	5.275985e-03	0.000000e+00	
279	5.295985e-03	0.000000e+00	
280	5.315985e-03	0.000000e+00	
281	5.335985e-03	0.000000e+00	
282	5.355985e-03	0.000000e+00	
283	5.375985e-03	0.000000e+00	
284	5.395985e-03	0.000000e+00	
285	5.415985e-03	0.000000e+00	
286	5.435985e-03	0.000000e+00	

Index   time            v(disable)      
--------------------------------------------------------------------------------
287	5.455985e-03	0.000000e+00	
288	5.475985e-03	0.000000e+00	
289	5.495985e-03	0.000000e+00	
290	5.515985e-03	0.000000e+00	
291	5.535985e-03	0.000000e+00	
292	5.555985e-03	0.000000e+00	
293	5.575985e-03	0.000000e+00	
294	5.595985e-03	0.000000e+00	
295	5.615985e-03	0.000000e+00	
296	5.635985e-03	0.000000e+00	
297	5.655985e-03	0.000000e+00	
298	5.675985e-03	0.000000e+00	
299	5.695985e-03	0.000000e+00	
300	5.715985e-03	0.000000e+00	
301	5.735985e-03	0.000000e+00	
302	5.755985e-03	0.000000e+00	
303	5.775985e-03	0.000000e+00	
304	5.795985e-03	0.000000e+00	
305	5.815985e-03	0.000000e+00	
306	5.835985e-03	0.000000e+00	
307	5.855985e-03	0.000000e+00	
308	5.875985e-03	0.000000e+00	
309	5.895985e-03	0.000000e+00	
310	5.915985e-03	0.000000e+00	
311	5.935985e-03	0.000000e+00	
312	5.955985e-03	0.000000e+00	
313	5.975985e-03	0.000000e+00	
314	5.995985e-03	0.000000e+00	
315	6.015985e-03	0.000000e+00	
316	6.035985e-03	0.000000e+00	
317	6.055985e-03	0.000000e+00	
318	6.075985e-03	0.000000e+00	
319	6.095985e-03	0.000000e+00	
320	6.115985e-03	0.000000e+00	
321	6.135985e-03	0.000000e+00	
322	6.155985e-03	0.000000e+00	
323	6.175985e-03	0.000000e+00	
324	6.195985e-03	0.000000e+00	
325	6.215985e-03	0.000000e+00	
326	6.235985e-03	0.000000e+00	
327	6.255985e-03	0.000000e+00	
328	6.275985e-03	0.000000e+00	
329	6.295985e-03	0.000000e+00	
330	6.315985e-03	0.000000e+00	
331	6.335985e-03	0.000000e+00	
332	6.355985e-03	0.000000e+00	
333	6.375985e-03	0.000000e+00	
334	6.395985e-03	0.000000e+00	
335	6.415985e-03	0.000000e+00	
336	6.435985e-03	0.000000e+00	
337	6.455985e-03	0.000000e+00	
338	6.475985e-03	0.000000e+00	
339	6.495985e-03	0.000000e+00	
340	6.515985e-03	0.000000e+00	
341	6.535985e-03	0.000000e+00	
342	6.555985e-03	0.000000e+00	
343	6.575985e-03	0.000000e+00	
344	6.595985e-03	0.000000e+00	

Index   time            v(disable)      
--------------------------------------------------------------------------------
345	6.615985e-03	0.000000e+00	
346	6.635985e-03	0.000000e+00	
347	6.655985e-03	0.000000e+00	
348	6.675985e-03	0.000000e+00	
349	6.695985e-03	0.000000e+00	
350	6.715985e-03	0.000000e+00	
351	6.735985e-03	0.000000e+00	
352	6.755985e-03	0.000000e+00	
353	6.775985e-03	0.000000e+00	
354	6.795985e-03	0.000000e+00	
355	6.815985e-03	0.000000e+00	
356	6.835985e-03	0.000000e+00	
357	6.855985e-03	0.000000e+00	
358	6.875985e-03	0.000000e+00	
359	6.895985e-03	0.000000e+00	
360	6.915985e-03	0.000000e+00	
361	6.935985e-03	0.000000e+00	
362	6.955985e-03	0.000000e+00	
363	6.975985e-03	0.000000e+00	
364	6.995985e-03	0.000000e+00	
365	7.015985e-03	0.000000e+00	
366	7.035985e-03	0.000000e+00	
367	7.055985e-03	0.000000e+00	
368	7.075985e-03	0.000000e+00	
369	7.095985e-03	0.000000e+00	
370	7.115985e-03	0.000000e+00	
371	7.135985e-03	0.000000e+00	
372	7.155985e-03	0.000000e+00	
373	7.175985e-03	0.000000e+00	
374	7.195985e-03	0.000000e+00	
375	7.215985e-03	0.000000e+00	
376	7.235985e-03	0.000000e+00	
377	7.255985e-03	0.000000e+00	
378	7.275985e-03	0.000000e+00	
379	7.295985e-03	0.000000e+00	
380	7.315985e-03	0.000000e+00	
381	7.335985e-03	0.000000e+00	
382	7.355985e-03	0.000000e+00	
383	7.375985e-03	0.000000e+00	
384	7.395985e-03	0.000000e+00	
385	7.415985e-03	0.000000e+00	
386	7.435985e-03	0.000000e+00	
387	7.455985e-03	0.000000e+00	
388	7.475985e-03	0.000000e+00	
389	7.495985e-03	0.000000e+00	
390	7.515985e-03	0.000000e+00	
391	7.535985e-03	0.000000e+00	
392	7.555985e-03	0.000000e+00	
393	7.575985e-03	0.000000e+00	
394	7.595985e-03	0.000000e+00	
395	7.615985e-03	0.000000e+00	
396	7.635985e-03	0.000000e+00	
397	7.655985e-03	0.000000e+00	
398	7.675985e-03	0.000000e+00	
399	7.695985e-03	0.000000e+00	
400	7.715985e-03	0.000000e+00	
401	7.735985e-03	0.000000e+00	
402	7.755985e-03	0.000000e+00	

Index   time            v(disable)      
--------------------------------------------------------------------------------
403	7.775985e-03	0.000000e+00	
404	7.795985e-03	0.000000e+00	
405	7.815985e-03	0.000000e+00	
406	7.835985e-03	0.000000e+00	
407	7.855985e-03	0.000000e+00	
408	7.875985e-03	0.000000e+00	
409	7.895985e-03	0.000000e+00	
410	7.915985e-03	0.000000e+00	
411	7.935985e-03	0.000000e+00	
412	7.955985e-03	0.000000e+00	
413	7.975985e-03	0.000000e+00	
414	7.995985e-03	0.000000e+00	
415	8.015985e-03	0.000000e+00	
416	8.035985e-03	0.000000e+00	
417	8.055985e-03	0.000000e+00	
418	8.075985e-03	0.000000e+00	
419	8.095985e-03	0.000000e+00	
420	8.115985e-03	0.000000e+00	
421	8.135985e-03	0.000000e+00	
422	8.155985e-03	0.000000e+00	
423	8.175985e-03	0.000000e+00	
424	8.195985e-03	0.000000e+00	
425	8.215985e-03	0.000000e+00	
426	8.235985e-03	0.000000e+00	
427	8.255985e-03	0.000000e+00	
428	8.275985e-03	0.000000e+00	
429	8.295985e-03	0.000000e+00	
430	8.315985e-03	0.000000e+00	
431	8.335985e-03	0.000000e+00	
432	8.355985e-03	0.000000e+00	
433	8.375985e-03	0.000000e+00	
434	8.395985e-03	0.000000e+00	
435	8.415985e-03	0.000000e+00	
436	8.435985e-03	0.000000e+00	
437	8.455985e-03	0.000000e+00	
438	8.475985e-03	0.000000e+00	
439	8.495985e-03	0.000000e+00	
440	8.515985e-03	0.000000e+00	
441	8.535985e-03	0.000000e+00	
442	8.555985e-03	0.000000e+00	
443	8.575985e-03	0.000000e+00	
444	8.595985e-03	0.000000e+00	
445	8.615985e-03	0.000000e+00	
446	8.635985e-03	0.000000e+00	
447	8.655985e-03	0.000000e+00	
448	8.675985e-03	0.000000e+00	
449	8.695985e-03	0.000000e+00	
450	8.715985e-03	0.000000e+00	
451	8.735985e-03	0.000000e+00	
452	8.755985e-03	0.000000e+00	
453	8.775985e-03	0.000000e+00	
454	8.795985e-03	0.000000e+00	
455	8.815985e-03	0.000000e+00	
456	8.835985e-03	0.000000e+00	
457	8.855985e-03	0.000000e+00	
458	8.875985e-03	0.000000e+00	
459	8.895985e-03	0.000000e+00	
460	8.915985e-03	0.000000e+00	

Index   time            v(disable)      
--------------------------------------------------------------------------------
461	8.935985e-03	0.000000e+00	
462	8.955985e-03	0.000000e+00	
463	8.975985e-03	0.000000e+00	
464	8.995985e-03	0.000000e+00	
465	9.015985e-03	0.000000e+00	
466	9.035985e-03	0.000000e+00	
467	9.055985e-03	0.000000e+00	
468	9.075985e-03	0.000000e+00	
469	9.095985e-03	0.000000e+00	
470	9.115985e-03	0.000000e+00	
471	9.135985e-03	0.000000e+00	
472	9.155985e-03	0.000000e+00	
473	9.175985e-03	0.000000e+00	
474	9.195985e-03	0.000000e+00	
475	9.215985e-03	0.000000e+00	
476	9.235985e-03	0.000000e+00	
477	9.255985e-03	0.000000e+00	
478	9.275985e-03	0.000000e+00	
479	9.295985e-03	0.000000e+00	
480	9.315985e-03	0.000000e+00	
481	9.335985e-03	0.000000e+00	
482	9.355985e-03	0.000000e+00	
483	9.375985e-03	0.000000e+00	
484	9.395985e-03	0.000000e+00	
485	9.415985e-03	0.000000e+00	
486	9.435985e-03	0.000000e+00	
487	9.455985e-03	0.000000e+00	
488	9.475985e-03	0.000000e+00	
489	9.495985e-03	0.000000e+00	
490	9.515985e-03	0.000000e+00	
491	9.535985e-03	0.000000e+00	
492	9.555985e-03	0.000000e+00	
493	9.575985e-03	0.000000e+00	
494	9.595985e-03	0.000000e+00	
495	9.615985e-03	0.000000e+00	
496	9.635985e-03	0.000000e+00	
497	9.655985e-03	0.000000e+00	
498	9.675985e-03	0.000000e+00	
499	9.695985e-03	0.000000e+00	
500	9.715985e-03	0.000000e+00	
501	9.735985e-03	0.000000e+00	
502	9.755985e-03	0.000000e+00	
503	9.775985e-03	0.000000e+00	
504	9.795985e-03	0.000000e+00	
505	9.815985e-03	0.000000e+00	
506	9.835985e-03	0.000000e+00	
507	9.855985e-03	0.000000e+00	
508	9.875985e-03	0.000000e+00	
509	9.895985e-03	0.000000e+00	
510	9.915985e-03	0.000000e+00	
511	9.935985e-03	0.000000e+00	
512	9.955985e-03	0.000000e+00	
513	9.975985e-03	0.000000e+00	
514	9.995985e-03	0.000000e+00	
515	1.001599e-02	0.000000e+00	
516	1.003599e-02	0.000000e+00	
517	1.005599e-02	0.000000e+00	
518	1.007599e-02	0.000000e+00	

Index   time            v(disable)      
--------------------------------------------------------------------------------
519	1.009599e-02	0.000000e+00	
520	1.011599e-02	0.000000e+00	
521	1.013599e-02	0.000000e+00	
522	1.015599e-02	0.000000e+00	
523	1.017599e-02	0.000000e+00	
524	1.019599e-02	0.000000e+00	
525	1.021599e-02	0.000000e+00	
526	1.023599e-02	0.000000e+00	
527	1.025599e-02	0.000000e+00	
528	1.027599e-02	0.000000e+00	
529	1.029599e-02	0.000000e+00	
530	1.031599e-02	0.000000e+00	
531	1.033599e-02	0.000000e+00	
532	1.035599e-02	0.000000e+00	
533	1.037599e-02	0.000000e+00	
534	1.039599e-02	0.000000e+00	
535	1.041599e-02	0.000000e+00	
536	1.043599e-02	0.000000e+00	
537	1.045599e-02	0.000000e+00	
538	1.047599e-02	0.000000e+00	
539	1.049599e-02	0.000000e+00	
540	1.051599e-02	0.000000e+00	
541	1.053599e-02	0.000000e+00	
542	1.055599e-02	0.000000e+00	
543	1.057599e-02	0.000000e+00	
544	1.059599e-02	0.000000e+00	
545	1.061599e-02	0.000000e+00	
546	1.063599e-02	0.000000e+00	
547	1.065599e-02	0.000000e+00	
548	1.067599e-02	0.000000e+00	
549	1.069599e-02	0.000000e+00	
550	1.071599e-02	0.000000e+00	
551	1.073599e-02	0.000000e+00	
552	1.075599e-02	0.000000e+00	
553	1.077599e-02	0.000000e+00	
554	1.079599e-02	0.000000e+00	
555	1.081599e-02	0.000000e+00	
556	1.083599e-02	0.000000e+00	
557	1.085599e-02	0.000000e+00	
558	1.087599e-02	0.000000e+00	
559	1.089599e-02	0.000000e+00	
560	1.091599e-02	0.000000e+00	
561	1.093599e-02	0.000000e+00	
562	1.095599e-02	0.000000e+00	
563	1.097599e-02	0.000000e+00	
564	1.099599e-02	0.000000e+00	
565	1.101599e-02	0.000000e+00	
566	1.103599e-02	0.000000e+00	
567	1.105599e-02	0.000000e+00	
568	1.107599e-02	0.000000e+00	
569	1.109599e-02	0.000000e+00	
570	1.111599e-02	0.000000e+00	
571	1.113599e-02	0.000000e+00	
572	1.115599e-02	0.000000e+00	
573	1.117599e-02	0.000000e+00	
574	1.119599e-02	0.000000e+00	
575	1.121599e-02	0.000000e+00	
576	1.123599e-02	0.000000e+00	

Index   time            v(disable)      
--------------------------------------------------------------------------------
577	1.125599e-02	0.000000e+00	
578	1.127599e-02	0.000000e+00	
579	1.129599e-02	0.000000e+00	
580	1.131599e-02	0.000000e+00	
581	1.133599e-02	0.000000e+00	
582	1.135599e-02	0.000000e+00	
583	1.137599e-02	0.000000e+00	
584	1.139599e-02	0.000000e+00	
585	1.141599e-02	0.000000e+00	
586	1.143599e-02	0.000000e+00	
587	1.145599e-02	0.000000e+00	
588	1.147599e-02	0.000000e+00	
589	1.149599e-02	0.000000e+00	
590	1.151599e-02	0.000000e+00	
591	1.153599e-02	0.000000e+00	
592	1.155599e-02	0.000000e+00	
593	1.157599e-02	0.000000e+00	
594	1.159599e-02	0.000000e+00	
595	1.161599e-02	0.000000e+00	
596	1.163599e-02	0.000000e+00	
597	1.165599e-02	0.000000e+00	
598	1.167599e-02	0.000000e+00	
599	1.169599e-02	0.000000e+00	
600	1.171599e-02	0.000000e+00	
601	1.173599e-02	0.000000e+00	
602	1.175599e-02	0.000000e+00	
603	1.177599e-02	0.000000e+00	
604	1.179599e-02	0.000000e+00	
605	1.181599e-02	0.000000e+00	
606	1.183599e-02	0.000000e+00	
607	1.185599e-02	0.000000e+00	
608	1.187599e-02	0.000000e+00	
609	1.189599e-02	0.000000e+00	
610	1.191599e-02	0.000000e+00	
611	1.193599e-02	0.000000e+00	
612	1.195599e-02	0.000000e+00	
613	1.197599e-02	0.000000e+00	
614	1.199599e-02	0.000000e+00	
615	1.200000e-02	0.000000e+00	
ngspice-44.2 done
