
Note: No compatibility mode selected!


Circuit: tb001-page5-power-boundary-fds6574-bank

Doing analysis at TEMP = 27.000000 and TNOM = 27.000000

Using SPARSE 1.3 as Direct Linear Solver

Initial Transient Solution
--------------------------

Node                                   Voltage
----                                   -------
vin_src                                    1.8
en                                           0
vin                                        1.8
pgate                                      1.8
vout                               1.28016e-10
vctrl#branch                                 0
vmain1p8#branch                   -5.45342e-12


No. of Data Rows : 632
                    tb001-page5-power-boundary-fds6574-bank
                    Transient Analysis  Sat Jun 13 12:38:50  2026
--------------------------------------------------------------------------------
Index   time            v(vin)          v(en)           v(pgate)        
--------------------------------------------------------------------------------
0	0.000000e+00	1.800000e+00	0.000000e+00	1.800000e+00	
1	2.000000e-07	1.800000e+00	0.000000e+00	1.800000e+00	
2	4.000000e-07	1.800000e+00	0.000000e+00	1.800000e+00	
3	8.000000e-07	1.800000e+00	0.000000e+00	1.800000e+00	
4	1.600000e-06	1.800000e+00	0.000000e+00	1.800000e+00	
5	3.200000e-06	1.800000e+00	0.000000e+00	1.800000e+00	
6	6.400000e-06	1.800000e+00	0.000000e+00	1.800000e+00	
7	1.280000e-05	1.800000e+00	0.000000e+00	1.800000e+00	
8	2.560000e-05	1.800000e+00	0.000000e+00	1.800000e+00	
9	4.560000e-05	1.800000e+00	0.000000e+00	1.800000e+00	
10	6.560000e-05	1.800000e+00	0.000000e+00	1.800000e+00	
11	8.560000e-05	1.800000e+00	0.000000e+00	1.800000e+00	
12	1.056000e-04	1.800000e+00	0.000000e+00	1.800000e+00	
13	1.256000e-04	1.800000e+00	0.000000e+00	1.800000e+00	
14	1.456000e-04	1.800000e+00	0.000000e+00	1.800000e+00	
15	1.656000e-04	1.800000e+00	0.000000e+00	1.800000e+00	
16	1.856000e-04	1.800000e+00	0.000000e+00	1.800000e+00	
17	2.056000e-04	1.800000e+00	0.000000e+00	1.800000e+00	
18	2.256000e-04	1.800000e+00	0.000000e+00	1.800000e+00	
19	2.456000e-04	1.800000e+00	0.000000e+00	1.800000e+00	
20	2.656000e-04	1.800000e+00	0.000000e+00	1.800000e+00	
21	2.856000e-04	1.800000e+00	0.000000e+00	1.800000e+00	
22	3.056000e-04	1.800000e+00	0.000000e+00	1.800000e+00	
23	3.256000e-04	1.800000e+00	0.000000e+00	1.800000e+00	
24	3.456000e-04	1.800000e+00	0.000000e+00	1.800000e+00	
25	3.656000e-04	1.800000e+00	0.000000e+00	1.800000e+00	
26	3.856000e-04	1.800000e+00	0.000000e+00	1.800000e+00	
27	4.056000e-04	1.800000e+00	0.000000e+00	1.800000e+00	
28	4.256000e-04	1.800000e+00	0.000000e+00	1.800000e+00	
29	4.456000e-04	1.800000e+00	0.000000e+00	1.800000e+00	
30	4.656000e-04	1.800000e+00	0.000000e+00	1.800000e+00	
31	4.856000e-04	1.800000e+00	0.000000e+00	1.800000e+00	
32	5.056000e-04	1.800000e+00	0.000000e+00	1.800000e+00	
33	5.256000e-04	1.800000e+00	0.000000e+00	1.800000e+00	
34	5.456000e-04	1.800000e+00	0.000000e+00	1.800000e+00	
35	5.656000e-04	1.800000e+00	0.000000e+00	1.800000e+00	
36	5.856000e-04	1.800000e+00	0.000000e+00	1.800000e+00	
37	6.056000e-04	1.800000e+00	0.000000e+00	1.800000e+00	
38	6.256000e-04	1.800000e+00	0.000000e+00	1.800000e+00	
39	6.456000e-04	1.800000e+00	0.000000e+00	1.800000e+00	
40	6.656000e-04	1.800000e+00	0.000000e+00	1.800000e+00	
41	6.856000e-04	1.800000e+00	0.000000e+00	1.800000e+00	
42	7.056000e-04	1.800000e+00	0.000000e+00	1.800000e+00	
43	7.256000e-04	1.800000e+00	0.000000e+00	1.800000e+00	
44	7.456000e-04	1.800000e+00	0.000000e+00	1.800000e+00	
45	7.656000e-04	1.800000e+00	0.000000e+00	1.800000e+00	
46	7.856000e-04	1.800000e+00	0.000000e+00	1.800000e+00	
47	8.056000e-04	1.800000e+00	0.000000e+00	1.800000e+00	
48	8.256000e-04	1.800000e+00	0.000000e+00	1.800000e+00	
49	8.456000e-04	1.800000e+00	0.000000e+00	1.800000e+00	
50	8.656000e-04	1.800000e+00	0.000000e+00	1.800000e+00	
51	8.856000e-04	1.800000e+00	0.000000e+00	1.800000e+00	
52	9.056000e-04	1.800000e+00	0.000000e+00	1.800000e+00	
53	9.256000e-04	1.800000e+00	0.000000e+00	1.800000e+00	
54	9.456000e-04	1.800000e+00	0.000000e+00	1.800000e+00	

Index   time            v(vin)          v(en)           v(pgate)        
--------------------------------------------------------------------------------
55	9.656000e-04	1.800000e+00	0.000000e+00	1.800000e+00	
56	9.856000e-04	1.800000e+00	0.000000e+00	1.800000e+00	
57	1.000000e-03	1.800000e+00	0.000000e+00	1.800000e+00	
58	1.002000e-03	1.800000e+00	3.300000e-01	1.800000e+00	
59	1.006000e-03	1.800000e+00	9.900000e-01	1.800000e+00	
60	1.009751e-03	1.795971e+00	1.608985e+00	7.384986e-04	
61	1.013315e-03	1.793613e+00	2.196966e+00	3.756729e-04	
62	1.018874e-03	1.794628e+00	3.114238e+00	2.132311e-04	
63	1.020000e-03	1.794326e+00	3.300000e+00	1.960989e-04	
64	1.020557e-03	1.794300e+00	3.300000e+00	1.957706e-04	
65	1.021671e-03	1.794271e+00	3.300000e+00	1.960929e-04	
66	1.023899e-03	1.794263e+00	3.300000e+00	1.960921e-04	
67	1.028354e-03	1.794265e+00	3.300000e+00	1.960922e-04	
68	1.037265e-03	1.794264e+00	3.300000e+00	1.960921e-04	
69	1.055087e-03	1.794265e+00	3.300000e+00	1.960922e-04	
70	1.075087e-03	1.794264e+00	3.300000e+00	1.960921e-04	
71	1.095087e-03	1.794265e+00	3.300000e+00	1.960922e-04	
72	1.115087e-03	1.794264e+00	3.300000e+00	1.960922e-04	
73	1.135087e-03	1.794264e+00	3.300000e+00	1.960922e-04	
74	1.155087e-03	1.794264e+00	3.300000e+00	1.960922e-04	
75	1.175087e-03	1.794264e+00	3.300000e+00	1.960922e-04	
76	1.195087e-03	1.794264e+00	3.300000e+00	1.960922e-04	
77	1.215087e-03	1.794264e+00	3.300000e+00	1.960922e-04	
78	1.235087e-03	1.794264e+00	3.300000e+00	1.960922e-04	
79	1.255087e-03	1.794264e+00	3.300000e+00	1.960922e-04	
80	1.275087e-03	1.794271e+00	3.300000e+00	1.960928e-04	
81	1.295087e-03	1.794296e+00	3.300000e+00	1.960956e-04	
82	1.315087e-03	1.794339e+00	3.300000e+00	1.961003e-04	
83	1.335087e-03	1.794397e+00	3.300000e+00	1.961067e-04	
84	1.355087e-03	1.794469e+00	3.300000e+00	1.961146e-04	
85	1.375087e-03	1.794552e+00	3.300000e+00	1.961236e-04	
86	1.395087e-03	1.794644e+00	3.300000e+00	1.961337e-04	
87	1.415087e-03	1.794743e+00	3.300000e+00	1.961444e-04	
88	1.435087e-03	1.794846e+00	3.300000e+00	1.961557e-04	
89	1.455087e-03	1.794952e+00	3.300000e+00	1.961673e-04	
90	1.475087e-03	1.795059e+00	3.300000e+00	1.961790e-04	
91	1.495087e-03	1.795165e+00	3.300000e+00	1.961907e-04	
92	1.515087e-03	1.795271e+00	3.300000e+00	1.962022e-04	
93	1.535087e-03	1.795374e+00	3.300000e+00	1.962134e-04	
94	1.555087e-03	1.795474e+00	3.300000e+00	1.962243e-04	
95	1.575087e-03	1.795570e+00	3.300000e+00	1.962348e-04	
96	1.595087e-03	1.795661e+00	3.300000e+00	1.962448e-04	
97	1.615087e-03	1.795748e+00	3.300000e+00	1.962543e-04	
98	1.635087e-03	1.795830e+00	3.300000e+00	1.962633e-04	
99	1.655087e-03	1.795907e+00	3.300000e+00	1.962717e-04	
100	1.675087e-03	1.795979e+00	3.300000e+00	1.962796e-04	
101	1.695087e-03	1.796047e+00	3.300000e+00	1.962870e-04	
102	1.715087e-03	1.796109e+00	3.300000e+00	1.962938e-04	
103	1.735087e-03	1.796167e+00	3.300000e+00	1.963001e-04	
104	1.755087e-03	1.796221e+00	3.300000e+00	1.963060e-04	
105	1.775087e-03	1.796270e+00	3.300000e+00	1.963114e-04	
106	1.795087e-03	1.796315e+00	3.300000e+00	1.963163e-04	
107	1.815087e-03	1.796357e+00	3.300000e+00	1.963209e-04	
108	1.835087e-03	1.796395e+00	3.300000e+00	1.963250e-04	
109	1.855087e-03	1.796430e+00	3.300000e+00	1.963288e-04	
110	1.875087e-03	1.796462e+00	3.300000e+00	1.963323e-04	
111	1.895087e-03	1.796491e+00	3.300000e+00	1.963355e-04	
112	1.915087e-03	1.796517e+00	3.300000e+00	1.963384e-04	

Index   time            v(vin)          v(en)           v(pgate)        
--------------------------------------------------------------------------------
113	1.935087e-03	1.796541e+00	3.300000e+00	1.963410e-04	
114	1.955087e-03	1.796563e+00	3.300000e+00	1.963434e-04	
115	1.975087e-03	1.796583e+00	3.300000e+00	1.963456e-04	
116	1.995087e-03	1.796601e+00	3.300000e+00	1.963475e-04	
117	2.015087e-03	1.796617e+00	3.300000e+00	1.963493e-04	
118	2.035087e-03	1.796632e+00	3.300000e+00	1.963509e-04	
119	2.055087e-03	1.796645e+00	3.300000e+00	1.963524e-04	
120	2.075087e-03	1.796658e+00	3.300000e+00	1.963537e-04	
121	2.095087e-03	1.796669e+00	3.300000e+00	1.963549e-04	
122	2.115087e-03	1.796679e+00	3.300000e+00	1.963560e-04	
123	2.135087e-03	1.796688e+00	3.300000e+00	1.963570e-04	
124	2.155087e-03	1.796696e+00	3.300000e+00	1.963579e-04	
125	2.175087e-03	1.796703e+00	3.300000e+00	1.963587e-04	
126	2.195087e-03	1.796710e+00	3.300000e+00	1.963594e-04	
127	2.215087e-03	1.796716e+00	3.300000e+00	1.963601e-04	
128	2.235087e-03	1.796721e+00	3.300000e+00	1.963607e-04	
129	2.255087e-03	1.796726e+00	3.300000e+00	1.963612e-04	
130	2.275087e-03	1.796730e+00	3.300000e+00	1.963617e-04	
131	2.295087e-03	1.796734e+00	3.300000e+00	1.963621e-04	
132	2.315087e-03	1.796738e+00	3.300000e+00	1.963625e-04	
133	2.335087e-03	1.796741e+00	3.300000e+00	1.963629e-04	
134	2.355087e-03	1.796744e+00	3.300000e+00	1.963632e-04	
135	2.375087e-03	1.796747e+00	3.300000e+00	1.963635e-04	
136	2.395087e-03	1.796749e+00	3.300000e+00	1.963637e-04	
137	2.415087e-03	1.796751e+00	3.300000e+00	1.963640e-04	
138	2.435087e-03	1.796753e+00	3.300000e+00	1.963642e-04	
139	2.455087e-03	1.796755e+00	3.300000e+00	1.963644e-04	
140	2.475087e-03	1.796757e+00	3.300000e+00	1.963646e-04	
141	2.495087e-03	1.796758e+00	3.300000e+00	1.963647e-04	
142	2.515087e-03	1.796759e+00	3.300000e+00	1.963649e-04	
143	2.535087e-03	1.796760e+00	3.300000e+00	1.963650e-04	
144	2.555087e-03	1.796761e+00	3.300000e+00	1.963651e-04	
145	2.575087e-03	1.796762e+00	3.300000e+00	1.963652e-04	
146	2.595087e-03	1.796763e+00	3.300000e+00	1.963653e-04	
147	2.615087e-03	1.796764e+00	3.300000e+00	1.963654e-04	
148	2.635087e-03	1.796765e+00	3.300000e+00	1.963654e-04	
149	2.655087e-03	1.796765e+00	3.300000e+00	1.963655e-04	
150	2.675087e-03	1.796766e+00	3.300000e+00	1.963656e-04	
151	2.695087e-03	1.796766e+00	3.300000e+00	1.963656e-04	
152	2.715087e-03	1.796767e+00	3.300000e+00	1.963657e-04	
153	2.735087e-03	1.796767e+00	3.300000e+00	1.963657e-04	
154	2.755087e-03	1.796768e+00	3.300000e+00	1.963658e-04	
155	2.775087e-03	1.796768e+00	3.300000e+00	1.963658e-04	
156	2.795087e-03	1.796768e+00	3.300000e+00	1.963658e-04	
157	2.815087e-03	1.796769e+00	3.300000e+00	1.963659e-04	
158	2.835087e-03	1.796769e+00	3.300000e+00	1.963659e-04	
159	2.855087e-03	1.796769e+00	3.300000e+00	1.963659e-04	
160	2.875087e-03	1.796769e+00	3.300000e+00	1.963659e-04	
161	2.895087e-03	1.796769e+00	3.300000e+00	1.963660e-04	
162	2.915087e-03	1.796770e+00	3.300000e+00	1.963660e-04	
163	2.935087e-03	1.796770e+00	3.300000e+00	1.963660e-04	
164	2.955087e-03	1.796770e+00	3.300000e+00	1.963660e-04	
165	2.975087e-03	1.796770e+00	3.300000e+00	1.963660e-04	
166	2.995087e-03	1.796770e+00	3.300000e+00	1.963660e-04	
167	3.015087e-03	1.796770e+00	3.300000e+00	1.963660e-04	
168	3.035087e-03	1.796770e+00	3.300000e+00	1.963660e-04	
169	3.055087e-03	1.796770e+00	3.300000e+00	1.963661e-04	
170	3.075087e-03	1.796770e+00	3.300000e+00	1.963661e-04	

Index   time            v(vin)          v(en)           v(pgate)        
--------------------------------------------------------------------------------
171	3.095087e-03	1.796770e+00	3.300000e+00	1.963661e-04	
172	3.115087e-03	1.796770e+00	3.300000e+00	1.963661e-04	
173	3.135087e-03	1.796771e+00	3.300000e+00	1.963661e-04	
174	3.155087e-03	1.796771e+00	3.300000e+00	1.963661e-04	
175	3.175087e-03	1.796771e+00	3.300000e+00	1.963661e-04	
176	3.195087e-03	1.796771e+00	3.300000e+00	1.963661e-04	
177	3.215087e-03	1.796771e+00	3.300000e+00	1.963661e-04	
178	3.235087e-03	1.796771e+00	3.300000e+00	1.963661e-04	
179	3.255087e-03	1.796771e+00	3.300000e+00	1.963661e-04	
180	3.275087e-03	1.796771e+00	3.300000e+00	1.963661e-04	
181	3.295087e-03	1.796771e+00	3.300000e+00	1.963661e-04	
182	3.315087e-03	1.796771e+00	3.300000e+00	1.963661e-04	
183	3.335087e-03	1.796771e+00	3.300000e+00	1.963661e-04	
184	3.355087e-03	1.796771e+00	3.300000e+00	1.963661e-04	
185	3.375087e-03	1.796771e+00	3.300000e+00	1.963661e-04	
186	3.395087e-03	1.796771e+00	3.300000e+00	1.963661e-04	
187	3.415087e-03	1.796771e+00	3.300000e+00	1.963661e-04	
188	3.435087e-03	1.796771e+00	3.300000e+00	1.963661e-04	
189	3.455087e-03	1.796771e+00	3.300000e+00	1.963661e-04	
190	3.475087e-03	1.796771e+00	3.300000e+00	1.963661e-04	
191	3.495087e-03	1.796771e+00	3.300000e+00	1.963661e-04	
192	3.515087e-03	1.796771e+00	3.300000e+00	1.963661e-04	
193	3.535087e-03	1.796771e+00	3.300000e+00	1.963661e-04	
194	3.555087e-03	1.796771e+00	3.300000e+00	1.963661e-04	
195	3.575087e-03	1.796771e+00	3.300000e+00	1.963661e-04	
196	3.595087e-03	1.796771e+00	3.300000e+00	1.963661e-04	
197	3.615087e-03	1.796771e+00	3.300000e+00	1.963661e-04	
198	3.635087e-03	1.796771e+00	3.300000e+00	1.963661e-04	
199	3.655087e-03	1.796771e+00	3.300000e+00	1.963661e-04	
200	3.675087e-03	1.796771e+00	3.300000e+00	1.963661e-04	
201	3.695087e-03	1.796771e+00	3.300000e+00	1.963661e-04	
202	3.715087e-03	1.796771e+00	3.300000e+00	1.963661e-04	
203	3.735087e-03	1.796771e+00	3.300000e+00	1.963661e-04	
204	3.755087e-03	1.796771e+00	3.300000e+00	1.963661e-04	
205	3.775087e-03	1.796771e+00	3.300000e+00	1.963661e-04	
206	3.795087e-03	1.796771e+00	3.300000e+00	1.963661e-04	
207	3.815087e-03	1.796771e+00	3.300000e+00	1.963661e-04	
208	3.835087e-03	1.796771e+00	3.300000e+00	1.963661e-04	
209	3.855087e-03	1.796771e+00	3.300000e+00	1.963661e-04	
210	3.875087e-03	1.796771e+00	3.300000e+00	1.963661e-04	
211	3.895087e-03	1.796771e+00	3.300000e+00	1.963661e-04	
212	3.915087e-03	1.796771e+00	3.300000e+00	1.963661e-04	
213	3.935087e-03	1.796771e+00	3.300000e+00	1.963661e-04	
214	3.955087e-03	1.796771e+00	3.300000e+00	1.963661e-04	
215	3.975087e-03	1.796771e+00	3.300000e+00	1.963661e-04	
216	3.995087e-03	1.796771e+00	3.300000e+00	1.963661e-04	
217	4.015087e-03	1.796771e+00	3.300000e+00	1.963661e-04	
218	4.035087e-03	1.796771e+00	3.300000e+00	1.963661e-04	
219	4.055087e-03	1.796771e+00	3.300000e+00	1.963661e-04	
220	4.075087e-03	1.796771e+00	3.300000e+00	1.963661e-04	
221	4.095087e-03	1.796771e+00	3.300000e+00	1.963661e-04	
222	4.115087e-03	1.796771e+00	3.300000e+00	1.963661e-04	
223	4.135087e-03	1.796771e+00	3.300000e+00	1.963661e-04	
224	4.155087e-03	1.796771e+00	3.300000e+00	1.963661e-04	
225	4.175087e-03	1.796771e+00	3.300000e+00	1.963661e-04	
226	4.195087e-03	1.796771e+00	3.300000e+00	1.963661e-04	
227	4.215087e-03	1.796771e+00	3.300000e+00	1.963661e-04	
228	4.235087e-03	1.796771e+00	3.300000e+00	1.963661e-04	

Index   time            v(vin)          v(en)           v(pgate)        
--------------------------------------------------------------------------------
229	4.255087e-03	1.796771e+00	3.300000e+00	1.963661e-04	
230	4.275087e-03	1.796771e+00	3.300000e+00	1.963661e-04	
231	4.295087e-03	1.796771e+00	3.300000e+00	1.963661e-04	
232	4.315087e-03	1.796771e+00	3.300000e+00	1.963661e-04	
233	4.335087e-03	1.796771e+00	3.300000e+00	1.963661e-04	
234	4.355087e-03	1.796771e+00	3.300000e+00	1.963661e-04	
235	4.375087e-03	1.796771e+00	3.300000e+00	1.963661e-04	
236	4.395087e-03	1.796771e+00	3.300000e+00	1.963661e-04	
237	4.415087e-03	1.796771e+00	3.300000e+00	1.963661e-04	
238	4.435087e-03	1.796771e+00	3.300000e+00	1.963661e-04	
239	4.455087e-03	1.796771e+00	3.300000e+00	1.963661e-04	
240	4.475087e-03	1.796771e+00	3.300000e+00	1.963661e-04	
241	4.495087e-03	1.796771e+00	3.300000e+00	1.963661e-04	
242	4.515087e-03	1.796771e+00	3.300000e+00	1.963661e-04	
243	4.535087e-03	1.796771e+00	3.300000e+00	1.963661e-04	
244	4.555087e-03	1.796771e+00	3.300000e+00	1.963661e-04	
245	4.575087e-03	1.796771e+00	3.300000e+00	1.963661e-04	
246	4.595087e-03	1.796771e+00	3.300000e+00	1.963661e-04	
247	4.615087e-03	1.796771e+00	3.300000e+00	1.963661e-04	
248	4.635087e-03	1.796771e+00	3.300000e+00	1.963661e-04	
249	4.655087e-03	1.796771e+00	3.300000e+00	1.963661e-04	
250	4.675087e-03	1.796771e+00	3.300000e+00	1.963661e-04	
251	4.695087e-03	1.796771e+00	3.300000e+00	1.963661e-04	
252	4.715087e-03	1.796771e+00	3.300000e+00	1.963661e-04	
253	4.735087e-03	1.796771e+00	3.300000e+00	1.963661e-04	
254	4.755087e-03	1.796771e+00	3.300000e+00	1.963661e-04	
255	4.775087e-03	1.796771e+00	3.300000e+00	1.963661e-04	
256	4.795087e-03	1.796771e+00	3.300000e+00	1.963661e-04	
257	4.815087e-03	1.796771e+00	3.300000e+00	1.963661e-04	
258	4.835087e-03	1.796771e+00	3.300000e+00	1.963661e-04	
259	4.855087e-03	1.796771e+00	3.300000e+00	1.963661e-04	
260	4.875087e-03	1.796771e+00	3.300000e+00	1.963661e-04	
261	4.895087e-03	1.796771e+00	3.300000e+00	1.963661e-04	
262	4.915087e-03	1.796771e+00	3.300000e+00	1.963661e-04	
263	4.935087e-03	1.796771e+00	3.300000e+00	1.963661e-04	
264	4.955087e-03	1.796771e+00	3.300000e+00	1.963661e-04	
265	4.975087e-03	1.796771e+00	3.300000e+00	1.963661e-04	
266	4.995087e-03	1.796771e+00	3.300000e+00	1.963661e-04	
267	5.015087e-03	1.796771e+00	3.300000e+00	1.963661e-04	
268	5.020000e-03	1.796771e+00	3.300000e+00	1.963661e-04	
269	5.022000e-03	1.796771e+00	2.970000e+00	2.290787e-04	
270	5.026000e-03	1.796771e+00	2.310000e+00	3.439516e-04	
271	5.034000e-03	1.799462e+00	9.900000e-01	1.799462e+00	
272	5.040000e-03	1.800311e+00	0.000000e+00	1.800311e+00	
273	5.041600e-03	1.800104e+00	0.000000e+00	1.800104e+00	
274	5.044800e-03	1.799965e+00	0.000000e+00	1.799965e+00	
275	5.051200e-03	1.800021e+00	0.000000e+00	1.800021e+00	
276	5.064000e-03	1.799984e+00	0.000000e+00	1.799984e+00	
277	5.084000e-03	1.800014e+00	0.000000e+00	1.800014e+00	
278	5.104000e-03	1.799988e+00	0.000000e+00	1.799988e+00	
279	5.124000e-03	1.800010e+00	0.000000e+00	1.800010e+00	
280	5.144000e-03	1.799991e+00	0.000000e+00	1.799991e+00	
281	5.164000e-03	1.800007e+00	0.000000e+00	1.800007e+00	
282	5.184000e-03	1.799994e+00	0.000000e+00	1.799994e+00	
283	5.204000e-03	1.800005e+00	0.000000e+00	1.800005e+00	
284	5.224000e-03	1.799996e+00	0.000000e+00	1.799995e+00	
285	5.244000e-03	1.800004e+00	0.000000e+00	1.800004e+00	
286	5.264000e-03	1.799997e+00	0.000000e+00	1.799997e+00	

Index   time            v(vin)          v(en)           v(pgate)        
--------------------------------------------------------------------------------
287	5.284000e-03	1.800003e+00	0.000000e+00	1.800003e+00	
288	5.304000e-03	1.799998e+00	0.000000e+00	1.799997e+00	
289	5.324000e-03	1.800002e+00	0.000000e+00	1.800002e+00	
290	5.344000e-03	1.799998e+00	0.000000e+00	1.799998e+00	
291	5.364000e-03	1.800001e+00	0.000000e+00	1.800001e+00	
292	5.384000e-03	1.799999e+00	0.000000e+00	1.799999e+00	
293	5.404000e-03	1.800001e+00	0.000000e+00	1.800001e+00	
294	5.424000e-03	1.799999e+00	0.000000e+00	1.799999e+00	
295	5.444000e-03	1.800001e+00	0.000000e+00	1.800001e+00	
296	5.464000e-03	1.799999e+00	0.000000e+00	1.799999e+00	
297	5.484000e-03	1.800001e+00	0.000000e+00	1.800000e+00	
298	5.504000e-03	1.800000e+00	0.000000e+00	1.799999e+00	
299	5.524000e-03	1.800000e+00	0.000000e+00	1.800000e+00	
300	5.544000e-03	1.800000e+00	0.000000e+00	1.799999e+00	
301	5.564000e-03	1.800000e+00	0.000000e+00	1.800000e+00	
302	5.584000e-03	1.800000e+00	0.000000e+00	1.800000e+00	
303	5.604000e-03	1.800000e+00	0.000000e+00	1.800000e+00	
304	5.624000e-03	1.800000e+00	0.000000e+00	1.800000e+00	
305	5.644000e-03	1.800000e+00	0.000000e+00	1.800000e+00	
306	5.664000e-03	1.800000e+00	0.000000e+00	1.800000e+00	
307	5.684000e-03	1.800000e+00	0.000000e+00	1.800000e+00	
308	5.704000e-03	1.800000e+00	0.000000e+00	1.800000e+00	
309	5.724000e-03	1.800000e+00	0.000000e+00	1.800000e+00	
310	5.744000e-03	1.800000e+00	0.000000e+00	1.800000e+00	
311	5.764000e-03	1.800000e+00	0.000000e+00	1.800000e+00	
312	5.784000e-03	1.800000e+00	0.000000e+00	1.800000e+00	
313	5.804000e-03	1.800000e+00	0.000000e+00	1.800000e+00	
314	5.824000e-03	1.800000e+00	0.000000e+00	1.800000e+00	
315	5.844000e-03	1.800000e+00	0.000000e+00	1.800000e+00	
316	5.864000e-03	1.800000e+00	0.000000e+00	1.800000e+00	
317	5.884000e-03	1.800000e+00	0.000000e+00	1.800000e+00	
318	5.904000e-03	1.800000e+00	0.000000e+00	1.800000e+00	
319	5.924000e-03	1.800000e+00	0.000000e+00	1.800000e+00	
320	5.944000e-03	1.800000e+00	0.000000e+00	1.800000e+00	
321	5.964000e-03	1.800000e+00	0.000000e+00	1.800000e+00	
322	5.984000e-03	1.800000e+00	0.000000e+00	1.800000e+00	
323	6.004000e-03	1.800000e+00	0.000000e+00	1.800000e+00	
324	6.024000e-03	1.800000e+00	0.000000e+00	1.800000e+00	
325	6.044000e-03	1.800000e+00	0.000000e+00	1.800000e+00	
326	6.064000e-03	1.800000e+00	0.000000e+00	1.800000e+00	
327	6.084000e-03	1.800000e+00	0.000000e+00	1.800000e+00	
328	6.104000e-03	1.800000e+00	0.000000e+00	1.800000e+00	
329	6.124000e-03	1.800000e+00	0.000000e+00	1.800000e+00	
330	6.144000e-03	1.800000e+00	0.000000e+00	1.800000e+00	
331	6.164000e-03	1.800000e+00	0.000000e+00	1.800000e+00	
332	6.184000e-03	1.800000e+00	0.000000e+00	1.800000e+00	
333	6.204000e-03	1.800000e+00	0.000000e+00	1.800000e+00	
334	6.224000e-03	1.800000e+00	0.000000e+00	1.800000e+00	
335	6.244000e-03	1.800000e+00	0.000000e+00	1.800000e+00	
336	6.264000e-03	1.800000e+00	0.000000e+00	1.800000e+00	
337	6.284000e-03	1.800000e+00	0.000000e+00	1.800000e+00	
338	6.304000e-03	1.800000e+00	0.000000e+00	1.800000e+00	
339	6.324000e-03	1.800000e+00	0.000000e+00	1.800000e+00	
340	6.344000e-03	1.800000e+00	0.000000e+00	1.800000e+00	
341	6.364000e-03	1.800000e+00	0.000000e+00	1.800000e+00	
342	6.384000e-03	1.800000e+00	0.000000e+00	1.800000e+00	
343	6.404000e-03	1.800000e+00	0.000000e+00	1.800000e+00	
344	6.424000e-03	1.800000e+00	0.000000e+00	1.800000e+00	

Index   time            v(vin)          v(en)           v(pgate)        
--------------------------------------------------------------------------------
345	6.444000e-03	1.800000e+00	0.000000e+00	1.800000e+00	
346	6.464000e-03	1.800000e+00	0.000000e+00	1.800000e+00	
347	6.484000e-03	1.800000e+00	0.000000e+00	1.800000e+00	
348	6.504000e-03	1.800000e+00	0.000000e+00	1.800000e+00	
349	6.524000e-03	1.800000e+00	0.000000e+00	1.800000e+00	
350	6.544000e-03	1.800000e+00	0.000000e+00	1.800000e+00	
351	6.564000e-03	1.800000e+00	0.000000e+00	1.800000e+00	
352	6.584000e-03	1.800000e+00	0.000000e+00	1.800000e+00	
353	6.604000e-03	1.800000e+00	0.000000e+00	1.800000e+00	
354	6.624000e-03	1.800000e+00	0.000000e+00	1.800000e+00	
355	6.644000e-03	1.800000e+00	0.000000e+00	1.800000e+00	
356	6.664000e-03	1.800000e+00	0.000000e+00	1.800000e+00	
357	6.684000e-03	1.800000e+00	0.000000e+00	1.800000e+00	
358	6.704000e-03	1.800000e+00	0.000000e+00	1.800000e+00	
359	6.724000e-03	1.800000e+00	0.000000e+00	1.800000e+00	
360	6.744000e-03	1.800000e+00	0.000000e+00	1.800000e+00	
361	6.764000e-03	1.800000e+00	0.000000e+00	1.800000e+00	
362	6.784000e-03	1.800000e+00	0.000000e+00	1.800000e+00	
363	6.804000e-03	1.800000e+00	0.000000e+00	1.800000e+00	
364	6.824000e-03	1.800000e+00	0.000000e+00	1.800000e+00	
365	6.844000e-03	1.800000e+00	0.000000e+00	1.800000e+00	
366	6.864000e-03	1.800000e+00	0.000000e+00	1.800000e+00	
367	6.884000e-03	1.800000e+00	0.000000e+00	1.800000e+00	
368	6.904000e-03	1.800000e+00	0.000000e+00	1.800000e+00	
369	6.924000e-03	1.800000e+00	0.000000e+00	1.800000e+00	
370	6.944000e-03	1.800000e+00	0.000000e+00	1.800000e+00	
371	6.964000e-03	1.800000e+00	0.000000e+00	1.800000e+00	
372	6.984000e-03	1.800000e+00	0.000000e+00	1.800000e+00	
373	7.004000e-03	1.800000e+00	0.000000e+00	1.800000e+00	
374	7.024000e-03	1.800000e+00	0.000000e+00	1.800000e+00	
375	7.044000e-03	1.800000e+00	0.000000e+00	1.800000e+00	
376	7.064000e-03	1.800000e+00	0.000000e+00	1.800000e+00	
377	7.084000e-03	1.800000e+00	0.000000e+00	1.800000e+00	
378	7.104000e-03	1.800000e+00	0.000000e+00	1.800000e+00	
379	7.124000e-03	1.800000e+00	0.000000e+00	1.800000e+00	
380	7.144000e-03	1.800000e+00	0.000000e+00	1.800000e+00	
381	7.164000e-03	1.800000e+00	0.000000e+00	1.800000e+00	
382	7.184000e-03	1.800000e+00	0.000000e+00	1.800000e+00	
383	7.204000e-03	1.800000e+00	0.000000e+00	1.800000e+00	
384	7.224000e-03	1.800000e+00	0.000000e+00	1.800000e+00	
385	7.244000e-03	1.800000e+00	0.000000e+00	1.800000e+00	
386	7.264000e-03	1.800000e+00	0.000000e+00	1.800000e+00	
387	7.284000e-03	1.800000e+00	0.000000e+00	1.800000e+00	
388	7.304000e-03	1.800000e+00	0.000000e+00	1.800000e+00	
389	7.324000e-03	1.800000e+00	0.000000e+00	1.800000e+00	
390	7.344000e-03	1.800000e+00	0.000000e+00	1.800000e+00	
391	7.364000e-03	1.800000e+00	0.000000e+00	1.800000e+00	
392	7.384000e-03	1.800000e+00	0.000000e+00	1.800000e+00	
393	7.404000e-03	1.800000e+00	0.000000e+00	1.800000e+00	
394	7.424000e-03	1.800000e+00	0.000000e+00	1.800000e+00	
395	7.444000e-03	1.800000e+00	0.000000e+00	1.800000e+00	
396	7.464000e-03	1.800000e+00	0.000000e+00	1.800000e+00	
397	7.484000e-03	1.800000e+00	0.000000e+00	1.800000e+00	
398	7.504000e-03	1.800000e+00	0.000000e+00	1.800000e+00	
399	7.524000e-03	1.800000e+00	0.000000e+00	1.800000e+00	
400	7.544000e-03	1.800000e+00	0.000000e+00	1.800000e+00	
401	7.564000e-03	1.800000e+00	0.000000e+00	1.800000e+00	
402	7.584000e-03	1.800000e+00	0.000000e+00	1.800000e+00	

Index   time            v(vin)          v(en)           v(pgate)        
--------------------------------------------------------------------------------
403	7.604000e-03	1.800000e+00	0.000000e+00	1.800000e+00	
404	7.624000e-03	1.800000e+00	0.000000e+00	1.800000e+00	
405	7.644000e-03	1.800000e+00	0.000000e+00	1.800000e+00	
406	7.664000e-03	1.800000e+00	0.000000e+00	1.800000e+00	
407	7.684000e-03	1.800000e+00	0.000000e+00	1.800000e+00	
408	7.704000e-03	1.800000e+00	0.000000e+00	1.800000e+00	
409	7.724000e-03	1.800000e+00	0.000000e+00	1.800000e+00	
410	7.744000e-03	1.800000e+00	0.000000e+00	1.800000e+00	
411	7.764000e-03	1.800000e+00	0.000000e+00	1.800000e+00	
412	7.784000e-03	1.800000e+00	0.000000e+00	1.800000e+00	
413	7.804000e-03	1.800000e+00	0.000000e+00	1.800000e+00	
414	7.824000e-03	1.800000e+00	0.000000e+00	1.800000e+00	
415	7.844000e-03	1.800000e+00	0.000000e+00	1.800000e+00	
416	7.864000e-03	1.800000e+00	0.000000e+00	1.800000e+00	
417	7.884000e-03	1.800000e+00	0.000000e+00	1.800000e+00	
418	7.904000e-03	1.800000e+00	0.000000e+00	1.800000e+00	
419	7.924000e-03	1.800000e+00	0.000000e+00	1.800000e+00	
420	7.944000e-03	1.800000e+00	0.000000e+00	1.800000e+00	
421	7.964000e-03	1.800000e+00	0.000000e+00	1.800000e+00	
422	7.984000e-03	1.800000e+00	0.000000e+00	1.800000e+00	
423	8.004000e-03	1.800000e+00	0.000000e+00	1.800000e+00	
424	8.024000e-03	1.800000e+00	0.000000e+00	1.800000e+00	
425	8.044000e-03	1.800000e+00	0.000000e+00	1.800000e+00	
426	8.064000e-03	1.800000e+00	0.000000e+00	1.800000e+00	
427	8.084000e-03	1.800000e+00	0.000000e+00	1.800000e+00	
428	8.104000e-03	1.800000e+00	0.000000e+00	1.800000e+00	
429	8.124000e-03	1.800000e+00	0.000000e+00	1.800000e+00	
430	8.144000e-03	1.800000e+00	0.000000e+00	1.800000e+00	
431	8.164000e-03	1.800000e+00	0.000000e+00	1.800000e+00	
432	8.184000e-03	1.800000e+00	0.000000e+00	1.800000e+00	
433	8.204000e-03	1.800000e+00	0.000000e+00	1.800000e+00	
434	8.224000e-03	1.800000e+00	0.000000e+00	1.800000e+00	
435	8.244000e-03	1.800000e+00	0.000000e+00	1.800000e+00	
436	8.264000e-03	1.800000e+00	0.000000e+00	1.800000e+00	
437	8.284000e-03	1.800000e+00	0.000000e+00	1.800000e+00	
438	8.304000e-03	1.800000e+00	0.000000e+00	1.800000e+00	
439	8.324000e-03	1.800000e+00	0.000000e+00	1.800000e+00	
440	8.344000e-03	1.800000e+00	0.000000e+00	1.800000e+00	
441	8.364000e-03	1.800000e+00	0.000000e+00	1.800000e+00	
442	8.384000e-03	1.800000e+00	0.000000e+00	1.800000e+00	
443	8.404000e-03	1.800000e+00	0.000000e+00	1.800000e+00	
444	8.424000e-03	1.800000e+00	0.000000e+00	1.800000e+00	
445	8.444000e-03	1.800000e+00	0.000000e+00	1.800000e+00	
446	8.464000e-03	1.800000e+00	0.000000e+00	1.800000e+00	
447	8.484000e-03	1.800000e+00	0.000000e+00	1.800000e+00	
448	8.504000e-03	1.800000e+00	0.000000e+00	1.800000e+00	
449	8.524000e-03	1.800000e+00	0.000000e+00	1.800000e+00	
450	8.544000e-03	1.800000e+00	0.000000e+00	1.800000e+00	
451	8.564000e-03	1.800000e+00	0.000000e+00	1.800000e+00	
452	8.584000e-03	1.800000e+00	0.000000e+00	1.800000e+00	
453	8.604000e-03	1.800000e+00	0.000000e+00	1.800000e+00	
454	8.624000e-03	1.800000e+00	0.000000e+00	1.800000e+00	
455	8.644000e-03	1.800000e+00	0.000000e+00	1.800000e+00	
456	8.664000e-03	1.800000e+00	0.000000e+00	1.800000e+00	
457	8.684000e-03	1.800000e+00	0.000000e+00	1.800000e+00	
458	8.704000e-03	1.800000e+00	0.000000e+00	1.800000e+00	
459	8.724000e-03	1.800000e+00	0.000000e+00	1.800000e+00	
460	8.744000e-03	1.800000e+00	0.000000e+00	1.800000e+00	

Index   time            v(vin)          v(en)           v(pgate)        
--------------------------------------------------------------------------------
461	8.764000e-03	1.800000e+00	0.000000e+00	1.800000e+00	
462	8.784000e-03	1.800000e+00	0.000000e+00	1.800000e+00	
463	8.804000e-03	1.800000e+00	0.000000e+00	1.800000e+00	
464	8.824000e-03	1.800000e+00	0.000000e+00	1.800000e+00	
465	8.844000e-03	1.800000e+00	0.000000e+00	1.800000e+00	
466	8.864000e-03	1.800000e+00	0.000000e+00	1.800000e+00	
467	8.884000e-03	1.800000e+00	0.000000e+00	1.800000e+00	
468	8.904000e-03	1.800000e+00	0.000000e+00	1.800000e+00	
469	8.924000e-03	1.800000e+00	0.000000e+00	1.800000e+00	
470	8.944000e-03	1.800000e+00	0.000000e+00	1.800000e+00	
471	8.964000e-03	1.800000e+00	0.000000e+00	1.800000e+00	
472	8.984000e-03	1.800000e+00	0.000000e+00	1.800000e+00	
473	9.000000e-03	1.800000e+00	0.000000e+00	1.800000e+00	
474	9.002000e-03	1.800000e+00	3.300000e-01	1.800000e+00	
475	9.006000e-03	1.800000e+00	9.900000e-01	1.800000e+00	
476	9.010196e-03	1.795839e+00	1.682366e+00	6.590983e-04	
477	9.014173e-03	1.793591e+00	2.338527e+00	3.350362e-04	
478	9.020000e-03	1.794651e+00	3.300000e+00	1.961099e-04	
479	9.020795e-03	1.794457e+00	3.300000e+00	1.950895e-04	
480	9.022386e-03	1.794264e+00	3.300000e+00	1.960921e-04	
481	9.025567e-03	1.794264e+00	3.300000e+00	1.960922e-04	
482	9.031930e-03	1.794264e+00	3.300000e+00	1.960922e-04	
483	9.044656e-03	1.794264e+00	3.300000e+00	1.960922e-04	
484	9.064656e-03	1.794264e+00	3.300000e+00	1.960922e-04	
485	9.084656e-03	1.794264e+00	3.300000e+00	1.960922e-04	
486	9.104656e-03	1.794264e+00	3.300000e+00	1.960922e-04	
487	9.124656e-03	1.794264e+00	3.300000e+00	1.960922e-04	
488	9.144656e-03	1.794264e+00	3.300000e+00	1.960922e-04	
489	9.164656e-03	1.794264e+00	3.300000e+00	1.960922e-04	
490	9.184656e-03	1.794264e+00	3.300000e+00	1.960922e-04	
491	9.204656e-03	1.794264e+00	3.300000e+00	1.960922e-04	
492	9.224656e-03	1.794264e+00	3.300000e+00	1.960922e-04	
493	9.244656e-03	1.794264e+00	3.300000e+00	1.960922e-04	
494	9.264656e-03	1.794266e+00	3.300000e+00	1.960923e-04	
495	9.284656e-03	1.794283e+00	3.300000e+00	1.960942e-04	
496	9.304656e-03	1.794320e+00	3.300000e+00	1.960982e-04	
497	9.324656e-03	1.794372e+00	3.300000e+00	1.961039e-04	
498	9.344656e-03	1.794439e+00	3.300000e+00	1.961113e-04	
499	9.364656e-03	1.794518e+00	3.300000e+00	1.961199e-04	
500	9.384656e-03	1.794606e+00	3.300000e+00	1.961296e-04	
501	9.404656e-03	1.794702e+00	3.300000e+00	1.961400e-04	
502	9.424656e-03	1.794804e+00	3.300000e+00	1.961511e-04	
503	9.444656e-03	1.794909e+00	3.300000e+00	1.961626e-04	
504	9.464656e-03	1.795016e+00	3.300000e+00	1.961743e-04	
505	9.484656e-03	1.795123e+00	3.300000e+00	1.961860e-04	
506	9.504656e-03	1.795229e+00	3.300000e+00	1.961976e-04	
507	9.524656e-03	1.795333e+00	3.300000e+00	1.962090e-04	
508	9.544656e-03	1.795434e+00	3.300000e+00	1.962200e-04	
509	9.564656e-03	1.795532e+00	3.300000e+00	1.962307e-04	
510	9.584656e-03	1.795625e+00	3.300000e+00	1.962409e-04	
511	9.604656e-03	1.795714e+00	3.300000e+00	1.962506e-04	
512	9.624656e-03	1.795798e+00	3.300000e+00	1.962598e-04	
513	9.644656e-03	1.795877e+00	3.300000e+00	1.962684e-04	
514	9.664656e-03	1.795951e+00	3.300000e+00	1.962765e-04	
515	9.684656e-03	1.796020e+00	3.300000e+00	1.962841e-04	
516	9.704656e-03	1.796085e+00	3.300000e+00	1.962911e-04	
517	9.724656e-03	1.796144e+00	3.300000e+00	1.962977e-04	
518	9.744656e-03	1.796200e+00	3.300000e+00	1.963037e-04	

Index   time            v(vin)          v(en)           v(pgate)        
--------------------------------------------------------------------------------
519	9.764656e-03	1.796251e+00	3.300000e+00	1.963093e-04	
520	9.784656e-03	1.796298e+00	3.300000e+00	1.963144e-04	
521	9.804656e-03	1.796341e+00	3.300000e+00	1.963191e-04	
522	9.824656e-03	1.796380e+00	3.300000e+00	1.963234e-04	
523	9.844656e-03	1.796416e+00	3.300000e+00	1.963274e-04	
524	9.864656e-03	1.796449e+00	3.300000e+00	1.963310e-04	
525	9.884656e-03	1.796479e+00	3.300000e+00	1.963343e-04	
526	9.904656e-03	1.796507e+00	3.300000e+00	1.963372e-04	
527	9.924656e-03	1.796532e+00	3.300000e+00	1.963400e-04	
528	9.944656e-03	1.796554e+00	3.300000e+00	1.963425e-04	
529	9.964656e-03	1.796575e+00	3.300000e+00	1.963447e-04	
530	9.984656e-03	1.796594e+00	3.300000e+00	1.963468e-04	
531	1.000466e-02	1.796611e+00	3.300000e+00	1.963486e-04	
532	1.002466e-02	1.796626e+00	3.300000e+00	1.963503e-04	
533	1.004466e-02	1.796640e+00	3.300000e+00	1.963518e-04	
534	1.006466e-02	1.796653e+00	3.300000e+00	1.963532e-04	
535	1.008466e-02	1.796664e+00	3.300000e+00	1.963545e-04	
536	1.010466e-02	1.796675e+00	3.300000e+00	1.963556e-04	
537	1.012466e-02	1.796684e+00	3.300000e+00	1.963566e-04	
538	1.014466e-02	1.796693e+00	3.300000e+00	1.963576e-04	
539	1.016466e-02	1.796700e+00	3.300000e+00	1.963584e-04	
540	1.018466e-02	1.796707e+00	3.300000e+00	1.963591e-04	
541	1.020466e-02	1.796713e+00	3.300000e+00	1.963598e-04	
542	1.022466e-02	1.796719e+00	3.300000e+00	1.963604e-04	
543	1.024466e-02	1.796724e+00	3.300000e+00	1.963610e-04	
544	1.026466e-02	1.796729e+00	3.300000e+00	1.963615e-04	
545	1.028466e-02	1.796733e+00	3.300000e+00	1.963620e-04	
546	1.030466e-02	1.796737e+00	3.300000e+00	1.963624e-04	
547	1.032466e-02	1.796740e+00	3.300000e+00	1.963627e-04	
548	1.034466e-02	1.796743e+00	3.300000e+00	1.963631e-04	
549	1.036466e-02	1.796746e+00	3.300000e+00	1.963634e-04	
550	1.038466e-02	1.796748e+00	3.300000e+00	1.963636e-04	
551	1.040466e-02	1.796750e+00	3.300000e+00	1.963639e-04	
552	1.042466e-02	1.796752e+00	3.300000e+00	1.963641e-04	
553	1.044466e-02	1.796754e+00	3.300000e+00	1.963643e-04	
554	1.046466e-02	1.796756e+00	3.300000e+00	1.963645e-04	
555	1.048466e-02	1.796757e+00	3.300000e+00	1.963647e-04	
556	1.050466e-02	1.796759e+00	3.300000e+00	1.963648e-04	
557	1.052466e-02	1.796760e+00	3.300000e+00	1.963649e-04	
558	1.054466e-02	1.796761e+00	3.300000e+00	1.963650e-04	
559	1.056466e-02	1.796762e+00	3.300000e+00	1.963652e-04	
560	1.058466e-02	1.796763e+00	3.300000e+00	1.963652e-04	
561	1.060466e-02	1.796764e+00	3.300000e+00	1.963653e-04	
562	1.062466e-02	1.796764e+00	3.300000e+00	1.963654e-04	
563	1.064466e-02	1.796765e+00	3.300000e+00	1.963655e-04	
564	1.066466e-02	1.796766e+00	3.300000e+00	1.963655e-04	
565	1.068466e-02	1.796766e+00	3.300000e+00	1.963656e-04	
566	1.070466e-02	1.796767e+00	3.300000e+00	1.963657e-04	
567	1.072466e-02	1.796767e+00	3.300000e+00	1.963657e-04	
568	1.074466e-02	1.796767e+00	3.300000e+00	1.963657e-04	
569	1.076466e-02	1.796768e+00	3.300000e+00	1.963658e-04	
570	1.078466e-02	1.796768e+00	3.300000e+00	1.963658e-04	
571	1.080466e-02	1.796768e+00	3.300000e+00	1.963658e-04	
572	1.082466e-02	1.796769e+00	3.300000e+00	1.963659e-04	
573	1.084466e-02	1.796769e+00	3.300000e+00	1.963659e-04	
574	1.086466e-02	1.796769e+00	3.300000e+00	1.963659e-04	
575	1.088466e-02	1.796769e+00	3.300000e+00	1.963659e-04	
576	1.090466e-02	1.796769e+00	3.300000e+00	1.963660e-04	

Index   time            v(vin)          v(en)           v(pgate)        
--------------------------------------------------------------------------------
577	1.092466e-02	1.796770e+00	3.300000e+00	1.963660e-04	
578	1.094466e-02	1.796770e+00	3.300000e+00	1.963660e-04	
579	1.096466e-02	1.796770e+00	3.300000e+00	1.963660e-04	
580	1.098466e-02	1.796770e+00	3.300000e+00	1.963660e-04	
581	1.100466e-02	1.796770e+00	3.300000e+00	1.963660e-04	
582	1.102466e-02	1.796770e+00	3.300000e+00	1.963660e-04	
583	1.104466e-02	1.796770e+00	3.300000e+00	1.963660e-04	
584	1.106466e-02	1.796770e+00	3.300000e+00	1.963661e-04	
585	1.108466e-02	1.796770e+00	3.300000e+00	1.963661e-04	
586	1.110466e-02	1.796770e+00	3.300000e+00	1.963661e-04	
587	1.112466e-02	1.796770e+00	3.300000e+00	1.963661e-04	
588	1.114466e-02	1.796771e+00	3.300000e+00	1.963661e-04	
589	1.116466e-02	1.796771e+00	3.300000e+00	1.963661e-04	
590	1.118466e-02	1.796771e+00	3.300000e+00	1.963661e-04	
591	1.120466e-02	1.796771e+00	3.300000e+00	1.963661e-04	
592	1.122466e-02	1.796771e+00	3.300000e+00	1.963661e-04	
593	1.124466e-02	1.796771e+00	3.300000e+00	1.963661e-04	
594	1.126466e-02	1.796771e+00	3.300000e+00	1.963661e-04	
595	1.128466e-02	1.796771e+00	3.300000e+00	1.963661e-04	
596	1.130466e-02	1.796771e+00	3.300000e+00	1.963661e-04	
597	1.132466e-02	1.796771e+00	3.300000e+00	1.963661e-04	
598	1.134466e-02	1.796771e+00	3.300000e+00	1.963661e-04	
599	1.136466e-02	1.796771e+00	3.300000e+00	1.963661e-04	
600	1.138466e-02	1.796771e+00	3.300000e+00	1.963661e-04	
601	1.140466e-02	1.796771e+00	3.300000e+00	1.963661e-04	
602	1.142466e-02	1.796771e+00	3.300000e+00	1.963661e-04	
603	1.144466e-02	1.796771e+00	3.300000e+00	1.963661e-04	
604	1.146466e-02	1.796771e+00	3.300000e+00	1.963661e-04	
605	1.148466e-02	1.796771e+00	3.300000e+00	1.963661e-04	
606	1.150466e-02	1.796771e+00	3.300000e+00	1.963661e-04	
607	1.152466e-02	1.796771e+00	3.300000e+00	1.963661e-04	
608	1.154466e-02	1.796771e+00	3.300000e+00	1.963661e-04	
609	1.156466e-02	1.796771e+00	3.300000e+00	1.963661e-04	
610	1.158466e-02	1.796771e+00	3.300000e+00	1.963661e-04	
611	1.160466e-02	1.796771e+00	3.300000e+00	1.963661e-04	
612	1.162466e-02	1.796771e+00	3.300000e+00	1.963661e-04	
613	1.164466e-02	1.796771e+00	3.300000e+00	1.963661e-04	
614	1.166466e-02	1.796771e+00	3.300000e+00	1.963661e-04	
615	1.168466e-02	1.796771e+00	3.300000e+00	1.963661e-04	
616	1.170466e-02	1.796771e+00	3.300000e+00	1.963661e-04	
617	1.172466e-02	1.796771e+00	3.300000e+00	1.963661e-04	
618	1.174466e-02	1.796771e+00	3.300000e+00	1.963661e-04	
619	1.176466e-02	1.796771e+00	3.300000e+00	1.963661e-04	
620	1.178466e-02	1.796771e+00	3.300000e+00	1.963661e-04	
621	1.180466e-02	1.796771e+00	3.300000e+00	1.963661e-04	
622	1.182466e-02	1.796771e+00	3.300000e+00	1.963661e-04	
623	1.184466e-02	1.796771e+00	3.300000e+00	1.963661e-04	
624	1.186466e-02	1.796771e+00	3.300000e+00	1.963661e-04	
625	1.188466e-02	1.796771e+00	3.300000e+00	1.963661e-04	
626	1.190466e-02	1.796771e+00	3.300000e+00	1.963661e-04	
627	1.192466e-02	1.796771e+00	3.300000e+00	1.963661e-04	
628	1.194466e-02	1.796771e+00	3.300000e+00	1.963661e-04	
629	1.196466e-02	1.796771e+00	3.300000e+00	1.963661e-04	
630	1.198466e-02	1.796771e+00	3.300000e+00	1.963661e-04	
631	1.200000e-02	1.796771e+00	3.300000e+00	1.963661e-04	

                    tb001-page5-power-boundary-fds6574-bank
                    Transient Analysis  Sat Jun 13 12:38:50  2026
--------------------------------------------------------------------------------
Index   time            v(vout)         
--------------------------------------------------------------------------------
0	0.000000e+00	1.280157e-10	
1	2.000000e-07	1.280157e-10	
2	4.000000e-07	1.280157e-10	
3	8.000000e-07	1.280157e-10	
4	1.600000e-06	1.280157e-10	
5	3.200000e-06	1.280157e-10	
6	6.400000e-06	1.280157e-10	
7	1.280000e-05	1.280157e-10	
8	2.560000e-05	1.280157e-10	
9	4.560000e-05	1.280157e-10	
10	6.560000e-05	1.280157e-10	
11	8.560000e-05	1.280157e-10	
12	1.056000e-04	1.280157e-10	
13	1.256000e-04	1.280157e-10	
14	1.456000e-04	1.280157e-10	
15	1.656000e-04	1.280157e-10	
16	1.856000e-04	1.280157e-10	
17	2.056000e-04	1.280157e-10	
18	2.256000e-04	1.280157e-10	
19	2.456000e-04	1.280157e-10	
20	2.656000e-04	1.280157e-10	
21	2.856000e-04	1.280157e-10	
22	3.056000e-04	1.280157e-10	
23	3.256000e-04	1.280157e-10	
24	3.456000e-04	1.280157e-10	
25	3.656000e-04	1.280157e-10	
26	3.856000e-04	1.280157e-10	
27	4.056000e-04	1.280157e-10	
28	4.256000e-04	1.280157e-10	
29	4.456000e-04	1.280157e-10	
30	4.656000e-04	1.280157e-10	
31	4.856000e-04	1.280157e-10	
32	5.056000e-04	1.280157e-10	
33	5.256000e-04	1.280157e-10	
34	5.456000e-04	1.280157e-10	
35	5.656000e-04	1.280157e-10	
36	5.856000e-04	1.280157e-10	
37	6.056000e-04	1.280157e-10	
38	6.256000e-04	1.280157e-10	
39	6.456000e-04	1.280157e-10	
40	6.656000e-04	1.280157e-10	
41	6.856000e-04	1.280157e-10	
42	7.056000e-04	1.280157e-10	
43	7.256000e-04	1.280157e-10	
44	7.456000e-04	1.280157e-10	
45	7.656000e-04	1.280157e-10	
46	7.856000e-04	1.280157e-10	
47	8.056000e-04	1.280157e-10	
48	8.256000e-04	1.280157e-10	
49	8.456000e-04	1.280157e-10	
50	8.656000e-04	1.280157e-10	
51	8.856000e-04	1.280157e-10	
52	9.056000e-04	1.280157e-10	
53	9.256000e-04	1.280157e-10	
54	9.456000e-04	1.280157e-10	

Index   time            v(vout)         
--------------------------------------------------------------------------------
55	9.656000e-04	1.280157e-10	
56	9.856000e-04	1.280157e-10	
57	1.000000e-03	1.280157e-10	
58	1.002000e-03	1.280157e-10	
59	1.006000e-03	1.280157e-10	
60	1.009751e-03	6.109507e-03	
61	1.013315e-03	1.766887e-02	
62	1.018874e-03	3.558296e-02	
63	1.020000e-03	3.919824e-02	
64	1.020557e-03	4.098359e-02	
65	1.021671e-03	4.455162e-02	
66	1.023899e-03	5.167213e-02	
67	1.028354e-03	6.585208e-02	
68	1.037265e-03	9.396977e-02	
69	1.055087e-03	1.492499e-01	
70	1.075087e-03	2.097967e-01	
71	1.095087e-03	2.688068e-01	
72	1.115087e-03	3.263192e-01	
73	1.135087e-03	3.823719e-01	
74	1.155087e-03	4.370019e-01	
75	1.175087e-03	4.902453e-01	
76	1.195087e-03	5.421374e-01	
77	1.215087e-03	5.927124e-01	
78	1.235087e-03	6.420038e-01	
79	1.255087e-03	6.900441e-01	
80	1.275087e-03	7.368273e-01	
81	1.295087e-03	7.822394e-01	
82	1.315087e-03	8.261078e-01	
83	1.335087e-03	8.682857e-01	
84	1.355087e-03	9.086546e-01	
85	1.375087e-03	9.471246e-01	
86	1.395087e-03	9.836337e-01	
87	1.415087e-03	1.018146e+00	
88	1.435087e-03	1.050650e+00	
89	1.455087e-03	1.081155e+00	
90	1.475087e-03	1.109690e+00	
91	1.495087e-03	1.136301e+00	
92	1.515087e-03	1.161046e+00	
93	1.535087e-03	1.183995e+00	
94	1.555087e-03	1.205226e+00	
95	1.575087e-03	1.224822e+00	
96	1.595087e-03	1.242871e+00	
97	1.615087e-03	1.259463e+00	
98	1.635087e-03	1.274688e+00	
99	1.655087e-03	1.288636e+00	
100	1.675087e-03	1.301394e+00	
101	1.695087e-03	1.313049e+00	
102	1.715087e-03	1.323682e+00	
103	1.735087e-03	1.333371e+00	
104	1.755087e-03	1.342192e+00	
105	1.775087e-03	1.350214e+00	
106	1.795087e-03	1.357504e+00	
107	1.815087e-03	1.364122e+00	
108	1.835087e-03	1.370127e+00	
109	1.855087e-03	1.375572e+00	
110	1.875087e-03	1.380506e+00	
111	1.895087e-03	1.384975e+00	
112	1.915087e-03	1.389021e+00	

Index   time            v(vout)         
--------------------------------------------------------------------------------
113	1.935087e-03	1.392681e+00	
114	1.955087e-03	1.395992e+00	
115	1.975087e-03	1.398986e+00	
116	1.995087e-03	1.401692e+00	
117	2.015087e-03	1.404138e+00	
118	2.035087e-03	1.406347e+00	
119	2.055087e-03	1.408342e+00	
120	2.075087e-03	1.410143e+00	
121	2.095087e-03	1.411770e+00	
122	2.115087e-03	1.413238e+00	
123	2.135087e-03	1.414563e+00	
124	2.155087e-03	1.415759e+00	
125	2.175087e-03	1.416838e+00	
126	2.195087e-03	1.417811e+00	
127	2.215087e-03	1.418689e+00	
128	2.235087e-03	1.419481e+00	
129	2.255087e-03	1.420195e+00	
130	2.275087e-03	1.420839e+00	
131	2.295087e-03	1.421420e+00	
132	2.315087e-03	1.421943e+00	
133	2.335087e-03	1.422416e+00	
134	2.355087e-03	1.422841e+00	
135	2.375087e-03	1.423225e+00	
136	2.395087e-03	1.423571e+00	
137	2.415087e-03	1.423883e+00	
138	2.435087e-03	1.424164e+00	
139	2.455087e-03	1.424418e+00	
140	2.475087e-03	1.424646e+00	
141	2.495087e-03	1.424852e+00	
142	2.515087e-03	1.425038e+00	
143	2.535087e-03	1.425205e+00	
144	2.555087e-03	1.425356e+00	
145	2.575087e-03	1.425492e+00	
146	2.595087e-03	1.425615e+00	
147	2.615087e-03	1.425725e+00	
148	2.635087e-03	1.425825e+00	
149	2.655087e-03	1.425914e+00	
150	2.675087e-03	1.425995e+00	
151	2.695087e-03	1.426068e+00	
152	2.715087e-03	1.426134e+00	
153	2.735087e-03	1.426193e+00	
154	2.755087e-03	1.426246e+00	
155	2.775087e-03	1.426294e+00	
156	2.795087e-03	1.426338e+00	
157	2.815087e-03	1.426377e+00	
158	2.835087e-03	1.426412e+00	
159	2.855087e-03	1.426444e+00	
160	2.875087e-03	1.426472e+00	
161	2.895087e-03	1.426498e+00	
162	2.915087e-03	1.426521e+00	
163	2.935087e-03	1.426542e+00	
164	2.955087e-03	1.426561e+00	
165	2.975087e-03	1.426578e+00	
166	2.995087e-03	1.426593e+00	
167	3.015087e-03	1.426607e+00	
168	3.035087e-03	1.426619e+00	
169	3.055087e-03	1.426631e+00	
170	3.075087e-03	1.426641e+00	

Index   time            v(vout)         
--------------------------------------------------------------------------------
171	3.095087e-03	1.426650e+00	
172	3.115087e-03	1.426658e+00	
173	3.135087e-03	1.426665e+00	
174	3.155087e-03	1.426672e+00	
175	3.175087e-03	1.426678e+00	
176	3.195087e-03	1.426684e+00	
177	3.215087e-03	1.426688e+00	
178	3.235087e-03	1.426693e+00	
179	3.255087e-03	1.426697e+00	
180	3.275087e-03	1.426700e+00	
181	3.295087e-03	1.426704e+00	
182	3.315087e-03	1.426706e+00	
183	3.335087e-03	1.426709e+00	
184	3.355087e-03	1.426711e+00	
185	3.375087e-03	1.426714e+00	
186	3.395087e-03	1.426715e+00	
187	3.415087e-03	1.426717e+00	
188	3.435087e-03	1.426719e+00	
189	3.455087e-03	1.426720e+00	
190	3.475087e-03	1.426721e+00	
191	3.495087e-03	1.426723e+00	
192	3.515087e-03	1.426724e+00	
193	3.535087e-03	1.426724e+00	
194	3.555087e-03	1.426725e+00	
195	3.575087e-03	1.426726e+00	
196	3.595087e-03	1.426727e+00	
197	3.615087e-03	1.426727e+00	
198	3.635087e-03	1.426728e+00	
199	3.655087e-03	1.426728e+00	
200	3.675087e-03	1.426729e+00	
201	3.695087e-03	1.426729e+00	
202	3.715087e-03	1.426730e+00	
203	3.735087e-03	1.426730e+00	
204	3.755087e-03	1.426730e+00	
205	3.775087e-03	1.426730e+00	
206	3.795087e-03	1.426731e+00	
207	3.815087e-03	1.426731e+00	
208	3.835087e-03	1.426731e+00	
209	3.855087e-03	1.426731e+00	
210	3.875087e-03	1.426731e+00	
211	3.895087e-03	1.426732e+00	
212	3.915087e-03	1.426732e+00	
213	3.935087e-03	1.426732e+00	
214	3.955087e-03	1.426732e+00	
215	3.975087e-03	1.426732e+00	
216	3.995087e-03	1.426732e+00	
217	4.015087e-03	1.426732e+00	
218	4.035087e-03	1.426732e+00	
219	4.055087e-03	1.426732e+00	
220	4.075087e-03	1.426732e+00	
221	4.095087e-03	1.426732e+00	
222	4.115087e-03	1.426732e+00	
223	4.135087e-03	1.426733e+00	
224	4.155087e-03	1.426733e+00	
225	4.175087e-03	1.426733e+00	
226	4.195087e-03	1.426733e+00	
227	4.215087e-03	1.426733e+00	
228	4.235087e-03	1.426733e+00	

Index   time            v(vout)         
--------------------------------------------------------------------------------
229	4.255087e-03	1.426733e+00	
230	4.275087e-03	1.426733e+00	
231	4.295087e-03	1.426733e+00	
232	4.315087e-03	1.426733e+00	
233	4.335087e-03	1.426733e+00	
234	4.355087e-03	1.426733e+00	
235	4.375087e-03	1.426733e+00	
236	4.395087e-03	1.426733e+00	
237	4.415087e-03	1.426733e+00	
238	4.435087e-03	1.426733e+00	
239	4.455087e-03	1.426733e+00	
240	4.475087e-03	1.426733e+00	
241	4.495087e-03	1.426733e+00	
242	4.515087e-03	1.426733e+00	
243	4.535087e-03	1.426733e+00	
244	4.555087e-03	1.426733e+00	
245	4.575087e-03	1.426733e+00	
246	4.595087e-03	1.426733e+00	
247	4.615087e-03	1.426733e+00	
248	4.635087e-03	1.426733e+00	
249	4.655087e-03	1.426733e+00	
250	4.675087e-03	1.426733e+00	
251	4.695087e-03	1.426733e+00	
252	4.715087e-03	1.426733e+00	
253	4.735087e-03	1.426733e+00	
254	4.755087e-03	1.426733e+00	
255	4.775087e-03	1.426733e+00	
256	4.795087e-03	1.426733e+00	
257	4.815087e-03	1.426733e+00	
258	4.835087e-03	1.426733e+00	
259	4.855087e-03	1.426733e+00	
260	4.875087e-03	1.426733e+00	
261	4.895087e-03	1.426733e+00	
262	4.915087e-03	1.426733e+00	
263	4.935087e-03	1.426733e+00	
264	4.955087e-03	1.426733e+00	
265	4.975087e-03	1.426733e+00	
266	4.995087e-03	1.426733e+00	
267	5.015087e-03	1.426733e+00	
268	5.020000e-03	1.426733e+00	
269	5.022000e-03	1.426733e+00	
270	5.026000e-03	1.426732e+00	
271	5.034000e-03	1.419433e+00	
272	5.040000e-03	1.408528e+00	
273	5.041600e-03	1.405637e+00	
274	5.044800e-03	1.399868e+00	
275	5.051200e-03	1.388399e+00	
276	5.064000e-03	1.365743e+00	
277	5.084000e-03	1.331079e+00	
278	5.104000e-03	1.297295e+00	
279	5.124000e-03	1.264369e+00	
280	5.144000e-03	1.232278e+00	
281	5.164000e-03	1.201002e+00	
282	5.184000e-03	1.170519e+00	
283	5.204000e-03	1.140811e+00	
284	5.224000e-03	1.111856e+00	
285	5.244000e-03	1.083636e+00	
286	5.264000e-03	1.056133e+00	

Index   time            v(vout)         
--------------------------------------------------------------------------------
287	5.284000e-03	1.029327e+00	
288	5.304000e-03	1.003202e+00	
289	5.324000e-03	9.777397e-01	
290	5.344000e-03	9.529239e-01	
291	5.364000e-03	9.287379e-01	
292	5.384000e-03	9.051657e-01	
293	5.404000e-03	8.821919e-01	
294	5.424000e-03	8.598011e-01	
295	5.444000e-03	8.379786e-01	
296	5.464000e-03	8.167100e-01	
297	5.484000e-03	7.959812e-01	
298	5.504000e-03	7.757786e-01	
299	5.524000e-03	7.560887e-01	
300	5.544000e-03	7.368985e-01	
301	5.564000e-03	7.181954e-01	
302	5.584000e-03	6.999670e-01	
303	5.604000e-03	6.822012e-01	
304	5.624000e-03	6.648864e-01	
305	5.644000e-03	6.480110e-01	
306	5.664000e-03	6.315640e-01	
307	5.684000e-03	6.155343e-01	
308	5.704000e-03	5.999116e-01	
309	5.724000e-03	5.846853e-01	
310	5.744000e-03	5.698455e-01	
311	5.764000e-03	5.553824e-01	
312	5.784000e-03	5.412863e-01	
313	5.804000e-03	5.275480e-01	
314	5.824000e-03	5.141584e-01	
315	5.844000e-03	5.011086e-01	
316	5.864000e-03	4.883901e-01	
317	5.884000e-03	4.759943e-01	
318	5.904000e-03	4.639132e-01	
319	5.924000e-03	4.521387e-01	
320	5.944000e-03	4.406630e-01	
321	5.964000e-03	4.294786e-01	
322	5.984000e-03	4.185781e-01	
323	6.004000e-03	4.079542e-01	
324	6.024000e-03	3.976000e-01	
325	6.044000e-03	3.875086e-01	
326	6.064000e-03	3.776733e-01	
327	6.084000e-03	3.680876e-01	
328	6.104000e-03	3.587453e-01	
329	6.124000e-03	3.496400e-01	
330	6.144000e-03	3.407658e-01	
331	6.164000e-03	3.321169e-01	
332	6.184000e-03	3.236875e-01	
333	6.204000e-03	3.154721e-01	
334	6.224000e-03	3.074651e-01	
335	6.244000e-03	2.996614e-01	
336	6.264000e-03	2.920557e-01	
337	6.284000e-03	2.846431e-01	
338	6.304000e-03	2.774186e-01	
339	6.324000e-03	2.703775e-01	
340	6.344000e-03	2.635151e-01	
341	6.364000e-03	2.568269e-01	
342	6.384000e-03	2.503084e-01	
343	6.404000e-03	2.439554e-01	
344	6.424000e-03	2.377636e-01	

Index   time            v(vout)         
--------------------------------------------------------------------------------
345	6.444000e-03	2.317289e-01	
346	6.464000e-03	2.258475e-01	
347	6.484000e-03	2.201153e-01	
348	6.504000e-03	2.145285e-01	
349	6.524000e-03	2.090836e-01	
350	6.544000e-03	2.037769e-01	
351	6.564000e-03	1.986049e-01	
352	6.584000e-03	1.935641e-01	
353	6.604000e-03	1.886513e-01	
354	6.624000e-03	1.838632e-01	
355	6.644000e-03	1.791966e-01	
356	6.664000e-03	1.746484e-01	
357	6.684000e-03	1.702157e-01	
358	6.704000e-03	1.658955e-01	
359	6.724000e-03	1.616849e-01	
360	6.744000e-03	1.575812e-01	
361	6.764000e-03	1.535817e-01	
362	6.784000e-03	1.496836e-01	
363	6.804000e-03	1.458845e-01	
364	6.824000e-03	1.421819e-01	
365	6.844000e-03	1.385732e-01	
366	6.864000e-03	1.350561e-01	
367	6.884000e-03	1.316282e-01	
368	6.904000e-03	1.282874e-01	
369	6.924000e-03	1.250314e-01	
370	6.944000e-03	1.218580e-01	
371	6.964000e-03	1.187651e-01	
372	6.984000e-03	1.157507e-01	
373	7.004000e-03	1.128129e-01	
374	7.024000e-03	1.099496e-01	
375	7.044000e-03	1.071590e-01	
376	7.064000e-03	1.044392e-01	
377	7.084000e-03	1.017885e-01	
378	7.104000e-03	9.920498e-02	
379	7.124000e-03	9.668707e-02	
380	7.144000e-03	9.423307e-02	
381	7.164000e-03	9.184136e-02	
382	7.184000e-03	8.951035e-02	
383	7.204000e-03	8.723850e-02	
384	7.224000e-03	8.502432e-02	
385	7.244000e-03	8.286633e-02	
386	7.264000e-03	8.076311e-02	
387	7.284000e-03	7.871328e-02	
388	7.304000e-03	7.671547e-02	
389	7.324000e-03	7.476836e-02	
390	7.344000e-03	7.287068e-02	
391	7.364000e-03	7.102116e-02	
392	7.384000e-03	6.921858e-02	
393	7.404000e-03	6.746176e-02	
394	7.424000e-03	6.574952e-02	
395	7.444000e-03	6.408075e-02	
396	7.464000e-03	6.245432e-02	
397	7.484000e-03	6.086918e-02	
398	7.504000e-03	5.932427e-02	
399	7.524000e-03	5.781857e-02	
400	7.544000e-03	5.635109e-02	
401	7.564000e-03	5.492085e-02	
402	7.584000e-03	5.352691e-02	

Index   time            v(vout)         
--------------------------------------------------------------------------------
403	7.604000e-03	5.216835e-02	
404	7.624000e-03	5.084428e-02	
405	7.644000e-03	4.955381e-02	
406	7.664000e-03	4.829609e-02	
407	7.684000e-03	4.707029e-02	
408	7.704000e-03	4.587561e-02	
409	7.724000e-03	4.471125e-02	
410	7.744000e-03	4.357644e-02	
411	7.764000e-03	4.247043e-02	
412	7.784000e-03	4.139250e-02	
413	7.804000e-03	4.034192e-02	
414	7.824000e-03	3.931801e-02	
415	7.844000e-03	3.832009e-02	
416	7.864000e-03	3.734749e-02	
417	7.884000e-03	3.639958e-02	
418	7.904000e-03	3.547573e-02	
419	7.924000e-03	3.457532e-02	
420	7.944000e-03	3.369777e-02	
421	7.964000e-03	3.284250e-02	
422	7.984000e-03	3.200893e-02	
423	8.004000e-03	3.119651e-02	
424	8.024000e-03	3.040472e-02	
425	8.044000e-03	2.963302e-02	
426	8.064000e-03	2.888091e-02	
427	8.084000e-03	2.814789e-02	
428	8.104000e-03	2.743347e-02	
429	8.124000e-03	2.673719e-02	
430	8.144000e-03	2.605858e-02	
431	8.164000e-03	2.539719e-02	
432	8.184000e-03	2.475259e-02	
433	8.204000e-03	2.412434e-02	
434	8.224000e-03	2.351205e-02	
435	8.244000e-03	2.291529e-02	
436	8.264000e-03	2.233368e-02	
437	8.284000e-03	2.176684e-02	
438	8.304000e-03	2.121437e-02	
439	8.324000e-03	2.067594e-02	
440	8.344000e-03	2.015116e-02	
441	8.364000e-03	1.963971e-02	
442	8.384000e-03	1.914124e-02	
443	8.404000e-03	1.865542e-02	
444	8.424000e-03	1.818193e-02	
445	8.444000e-03	1.772045e-02	
446	8.464000e-03	1.727069e-02	
447	8.484000e-03	1.683235e-02	
448	8.504000e-03	1.640513e-02	
449	8.524000e-03	1.598876e-02	
450	8.544000e-03	1.558295e-02	
451	8.564000e-03	1.518744e-02	
452	8.584000e-03	1.480197e-02	
453	8.604000e-03	1.442628e-02	
454	8.624000e-03	1.406013e-02	
455	8.644000e-03	1.370327e-02	
456	8.664000e-03	1.335547e-02	
457	8.684000e-03	1.301650e-02	
458	8.704000e-03	1.268613e-02	
459	8.724000e-03	1.236415e-02	
460	8.744000e-03	1.205033e-02	

Index   time            v(vout)         
--------------------------------------------------------------------------------
461	8.764000e-03	1.174449e-02	
462	8.784000e-03	1.144640e-02	
463	8.804000e-03	1.115588e-02	
464	8.824000e-03	1.087274e-02	
465	8.844000e-03	1.059678e-02	
466	8.864000e-03	1.032782e-02	
467	8.884000e-03	1.006569e-02	
468	8.904000e-03	9.810217e-03	
469	8.924000e-03	9.561226e-03	
470	8.944000e-03	9.318554e-03	
471	8.964000e-03	9.082041e-03	
472	8.984000e-03	8.851531e-03	
473	9.000000e-03	8.671347e-03	
474	9.002000e-03	8.649112e-03	
475	9.006000e-03	8.604758e-03	
476	9.010196e-03	1.538967e-02	
477	9.014173e-03	2.823828e-02	
478	9.020000e-03	4.693449e-02	
479	9.020795e-03	4.947615e-02	
480	9.022386e-03	5.455334e-02	
481	9.025567e-03	6.467482e-02	
482	9.031930e-03	8.479412e-02	
483	9.044656e-03	1.245431e-01	
484	9.064656e-03	1.857170e-01	
485	9.084656e-03	2.453383e-01	
486	9.104656e-03	3.034463e-01	
487	9.124656e-03	3.600795e-01	
488	9.144656e-03	4.152753e-01	
489	9.164656e-03	4.690702e-01	
490	9.184656e-03	5.214997e-01	
491	9.204656e-03	5.725985e-01	
492	9.224656e-03	6.224004e-01	
493	9.244656e-03	6.709382e-01	
494	9.264656e-03	7.182345e-01	
495	9.284656e-03	7.642176e-01	
496	9.304656e-03	8.087239e-01	
497	9.324656e-03	8.515951e-01	
498	9.344656e-03	8.927012e-01	
499	9.364656e-03	9.319412e-01	
500	9.384656e-03	9.692418e-01	
501	9.404656e-03	1.004557e+00	
502	9.424656e-03	1.037865e+00	
503	9.444656e-03	1.069169e+00	
504	9.464656e-03	1.098489e+00	
505	9.484656e-03	1.125865e+00	
506	9.504656e-03	1.151350e+00	
507	9.524656e-03	1.175010e+00	
508	9.544656e-03	1.196919e+00	
509	9.564656e-03	1.217160e+00	
510	9.584656e-03	1.235818e+00	
511	9.604656e-03	1.252983e+00	
512	9.624656e-03	1.268745e+00	
513	9.644656e-03	1.283194e+00	
514	9.664656e-03	1.296419e+00	
515	9.684656e-03	1.308506e+00	
516	9.704656e-03	1.319539e+00	
517	9.724656e-03	1.329597e+00	
518	9.744656e-03	1.338757e+00	

Index   time            v(vout)         
--------------------------------------------------------------------------------
519	9.764656e-03	1.347091e+00	
520	9.784656e-03	1.354667e+00	
521	9.804656e-03	1.361547e+00	
522	9.824656e-03	1.367791e+00	
523	9.844656e-03	1.373454e+00	
524	9.864656e-03	1.378587e+00	
525	9.884656e-03	1.383237e+00	
526	9.904656e-03	1.387448e+00	
527	9.924656e-03	1.391258e+00	
528	9.944656e-03	1.394705e+00	
529	9.964656e-03	1.397823e+00	
530	9.984656e-03	1.400641e+00	
531	1.000466e-02	1.403187e+00	
532	1.002466e-02	1.405488e+00	
533	1.004466e-02	1.407567e+00	
534	1.006466e-02	1.409444e+00	
535	1.008466e-02	1.411138e+00	
536	1.010466e-02	1.412668e+00	
537	1.012466e-02	1.414048e+00	
538	1.014466e-02	1.415294e+00	
539	1.016466e-02	1.416419e+00	
540	1.018466e-02	1.417433e+00	
541	1.020466e-02	1.418348e+00	
542	1.022466e-02	1.419173e+00	
543	1.024466e-02	1.419918e+00	
544	1.026466e-02	1.420589e+00	
545	1.028466e-02	1.421194e+00	
546	1.030466e-02	1.421740e+00	
547	1.032466e-02	1.422232e+00	
548	1.034466e-02	1.422676e+00	
549	1.036466e-02	1.423076e+00	
550	1.038466e-02	1.423437e+00	
551	1.040466e-02	1.423762e+00	
552	1.042466e-02	1.424055e+00	
553	1.044466e-02	1.424319e+00	
554	1.046466e-02	1.424558e+00	
555	1.048466e-02	1.424772e+00	
556	1.050466e-02	1.424966e+00	
557	1.052466e-02	1.425140e+00	
558	1.054466e-02	1.425298e+00	
559	1.056466e-02	1.425439e+00	
560	1.058466e-02	1.425567e+00	
561	1.060466e-02	1.425682e+00	
562	1.062466e-02	1.425786e+00	
563	1.064466e-02	1.425880e+00	
564	1.066466e-02	1.425964e+00	
565	1.068466e-02	1.426040e+00	
566	1.070466e-02	1.426108e+00	
567	1.072466e-02	1.426170e+00	
568	1.074466e-02	1.426226e+00	
569	1.076466e-02	1.426276e+00	
570	1.078466e-02	1.426321e+00	
571	1.080466e-02	1.426362e+00	
572	1.082466e-02	1.426398e+00	
573	1.084466e-02	1.426431e+00	
574	1.086466e-02	1.426461e+00	
575	1.088466e-02	1.426488e+00	
576	1.090466e-02	1.426512e+00	

Index   time            v(vout)         
--------------------------------------------------------------------------------
577	1.092466e-02	1.426534e+00	
578	1.094466e-02	1.426554e+00	
579	1.096466e-02	1.426571e+00	
580	1.098466e-02	1.426587e+00	
581	1.100466e-02	1.426602e+00	
582	1.102466e-02	1.426615e+00	
583	1.104466e-02	1.426626e+00	
584	1.106466e-02	1.426637e+00	
585	1.108466e-02	1.426646e+00	
586	1.110466e-02	1.426655e+00	
587	1.112466e-02	1.426663e+00	
588	1.114466e-02	1.426670e+00	
589	1.116466e-02	1.426676e+00	
590	1.118466e-02	1.426681e+00	
591	1.120466e-02	1.426687e+00	
592	1.122466e-02	1.426691e+00	
593	1.124466e-02	1.426695e+00	
594	1.126466e-02	1.426699e+00	
595	1.128466e-02	1.426702e+00	
596	1.130466e-02	1.426705e+00	
597	1.132466e-02	1.426708e+00	
598	1.134466e-02	1.426711e+00	
599	1.136466e-02	1.426713e+00	
600	1.138466e-02	1.426715e+00	
601	1.140466e-02	1.426717e+00	
602	1.142466e-02	1.426718e+00	
603	1.144466e-02	1.426720e+00	
604	1.146466e-02	1.426721e+00	
605	1.148466e-02	1.426722e+00	
606	1.150466e-02	1.426723e+00	
607	1.152466e-02	1.426724e+00	
608	1.154466e-02	1.426725e+00	
609	1.156466e-02	1.426726e+00	
610	1.158466e-02	1.426726e+00	
611	1.160466e-02	1.426727e+00	
612	1.162466e-02	1.426728e+00	
613	1.164466e-02	1.426728e+00	
614	1.166466e-02	1.426729e+00	
615	1.168466e-02	1.426729e+00	
616	1.170466e-02	1.426729e+00	
617	1.172466e-02	1.426730e+00	
618	1.174466e-02	1.426730e+00	
619	1.176466e-02	1.426730e+00	
620	1.178466e-02	1.426731e+00	
621	1.180466e-02	1.426731e+00	
622	1.182466e-02	1.426731e+00	
623	1.184466e-02	1.426731e+00	
624	1.186466e-02	1.426731e+00	
625	1.188466e-02	1.426732e+00	
626	1.190466e-02	1.426732e+00	
627	1.192466e-02	1.426732e+00	
628	1.194466e-02	1.426732e+00	
629	1.196466e-02	1.426732e+00	
630	1.198466e-02	1.426732e+00	
631	1.200000e-02	1.426732e+00	
ngspice-44.2 done
