
Note: No compatibility mode selected!


Circuit: tb001-page5-power-boundary

Doing analysis at TEMP = 27.000000 and TNOM = 27.000000

Using SPARSE 1.3 as Direct Linear Solver

Initial Transient Solution
--------------------------

Node                                   Voltage
----                                   -------
vin_src                                    1.8
en                                           0
vin                                        1.8
pgate                                      1.8
vout                               6.40079e-11
vctrl#branch                                 0
vmain1p8#branch                   -3.64153e-12


No. of Data Rows : 632
                           tb001-page5-power-boundary
                           Transient Analysis  Sat Jun 13 12:31:30  2026
--------------------------------------------------------------------------------
Index   time            v(vin)          v(en)           v(pgate)        
--------------------------------------------------------------------------------
0	0.000000e+00	1.800000e+00	0.000000e+00	1.800000e+00	
1	2.000000e-07	1.800000e+00	0.000000e+00	1.800000e+00	
2	4.000000e-07	1.800000e+00	0.000000e+00	1.800000e+00	
3	8.000000e-07	1.800000e+00	0.000000e+00	1.800000e+00	
4	1.600000e-06	1.800000e+00	0.000000e+00	1.800000e+00	
5	3.200000e-06	1.800000e+00	0.000000e+00	1.800000e+00	
6	6.400000e-06	1.800000e+00	0.000000e+00	1.800000e+00	
7	1.280000e-05	1.800000e+00	0.000000e+00	1.800000e+00	
8	2.560000e-05	1.800000e+00	0.000000e+00	1.800000e+00	
9	4.560000e-05	1.800000e+00	0.000000e+00	1.800000e+00	
10	6.560000e-05	1.800000e+00	0.000000e+00	1.800000e+00	
11	8.560000e-05	1.800000e+00	0.000000e+00	1.800000e+00	
12	1.056000e-04	1.800000e+00	0.000000e+00	1.800000e+00	
13	1.256000e-04	1.800000e+00	0.000000e+00	1.800000e+00	
14	1.456000e-04	1.800000e+00	0.000000e+00	1.800000e+00	
15	1.656000e-04	1.800000e+00	0.000000e+00	1.800000e+00	
16	1.856000e-04	1.800000e+00	0.000000e+00	1.800000e+00	
17	2.056000e-04	1.800000e+00	0.000000e+00	1.800000e+00	
18	2.256000e-04	1.800000e+00	0.000000e+00	1.800000e+00	
19	2.456000e-04	1.800000e+00	0.000000e+00	1.800000e+00	
20	2.656000e-04	1.800000e+00	0.000000e+00	1.800000e+00	
21	2.856000e-04	1.800000e+00	0.000000e+00	1.800000e+00	
22	3.056000e-04	1.800000e+00	0.000000e+00	1.800000e+00	
23	3.256000e-04	1.800000e+00	0.000000e+00	1.800000e+00	
24	3.456000e-04	1.800000e+00	0.000000e+00	1.800000e+00	
25	3.656000e-04	1.800000e+00	0.000000e+00	1.800000e+00	
26	3.856000e-04	1.800000e+00	0.000000e+00	1.800000e+00	
27	4.056000e-04	1.800000e+00	0.000000e+00	1.800000e+00	
28	4.256000e-04	1.800000e+00	0.000000e+00	1.800000e+00	
29	4.456000e-04	1.800000e+00	0.000000e+00	1.800000e+00	
30	4.656000e-04	1.800000e+00	0.000000e+00	1.800000e+00	
31	4.856000e-04	1.800000e+00	0.000000e+00	1.800000e+00	
32	5.056000e-04	1.800000e+00	0.000000e+00	1.800000e+00	
33	5.256000e-04	1.800000e+00	0.000000e+00	1.800000e+00	
34	5.456000e-04	1.800000e+00	0.000000e+00	1.800000e+00	
35	5.656000e-04	1.800000e+00	0.000000e+00	1.800000e+00	
36	5.856000e-04	1.800000e+00	0.000000e+00	1.800000e+00	
37	6.056000e-04	1.800000e+00	0.000000e+00	1.800000e+00	
38	6.256000e-04	1.800000e+00	0.000000e+00	1.800000e+00	
39	6.456000e-04	1.800000e+00	0.000000e+00	1.800000e+00	
40	6.656000e-04	1.800000e+00	0.000000e+00	1.800000e+00	
41	6.856000e-04	1.800000e+00	0.000000e+00	1.800000e+00	
42	7.056000e-04	1.800000e+00	0.000000e+00	1.800000e+00	
43	7.256000e-04	1.800000e+00	0.000000e+00	1.800000e+00	
44	7.456000e-04	1.800000e+00	0.000000e+00	1.800000e+00	
45	7.656000e-04	1.800000e+00	0.000000e+00	1.800000e+00	
46	7.856000e-04	1.800000e+00	0.000000e+00	1.800000e+00	
47	8.056000e-04	1.800000e+00	0.000000e+00	1.800000e+00	
48	8.256000e-04	1.800000e+00	0.000000e+00	1.800000e+00	
49	8.456000e-04	1.800000e+00	0.000000e+00	1.800000e+00	
50	8.656000e-04	1.800000e+00	0.000000e+00	1.800000e+00	
51	8.856000e-04	1.800000e+00	0.000000e+00	1.800000e+00	
52	9.056000e-04	1.800000e+00	0.000000e+00	1.800000e+00	
53	9.256000e-04	1.800000e+00	0.000000e+00	1.800000e+00	
54	9.456000e-04	1.800000e+00	0.000000e+00	1.800000e+00	

Index   time            v(vin)          v(en)           v(pgate)        
--------------------------------------------------------------------------------
55	9.656000e-04	1.800000e+00	0.000000e+00	1.800000e+00	
56	9.856000e-04	1.800000e+00	0.000000e+00	1.800000e+00	
57	1.000000e-03	1.800000e+00	0.000000e+00	1.800000e+00	
58	1.002000e-03	1.800000e+00	3.300000e-01	1.800000e+00	
59	1.006000e-03	1.800000e+00	9.900000e-01	1.800000e+00	
60	1.009751e-03	1.797977e+00	1.608985e+00	7.393243e-04	
61	1.013315e-03	1.796790e+00	2.196966e+00	3.763384e-04	
62	1.018874e-03	1.797299e+00	3.114212e+00	2.135511e-04	
63	1.020000e-03	1.797148e+00	3.300000e+00	1.964073e-04	
64	1.020557e-03	1.797135e+00	3.300000e+00	1.960802e-04	
65	1.021671e-03	1.797120e+00	3.300000e+00	1.964042e-04	
66	1.023899e-03	1.797116e+00	3.300000e+00	1.964038e-04	
67	1.028354e-03	1.797117e+00	3.300000e+00	1.964039e-04	
68	1.037265e-03	1.797116e+00	3.300000e+00	1.964039e-04	
69	1.055088e-03	1.797117e+00	3.300000e+00	1.964039e-04	
70	1.075088e-03	1.797116e+00	3.300000e+00	1.964039e-04	
71	1.095088e-03	1.797117e+00	3.300000e+00	1.964039e-04	
72	1.115088e-03	1.797116e+00	3.300000e+00	1.964039e-04	
73	1.135088e-03	1.797117e+00	3.300000e+00	1.964039e-04	
74	1.155088e-03	1.797116e+00	3.300000e+00	1.964039e-04	
75	1.175088e-03	1.797117e+00	3.300000e+00	1.964039e-04	
76	1.195088e-03	1.797116e+00	3.300000e+00	1.964039e-04	
77	1.215088e-03	1.797117e+00	3.300000e+00	1.964039e-04	
78	1.235088e-03	1.797116e+00	3.300000e+00	1.964039e-04	
79	1.255088e-03	1.797117e+00	3.300000e+00	1.964039e-04	
80	1.275088e-03	1.797116e+00	3.300000e+00	1.964039e-04	
81	1.295088e-03	1.797117e+00	3.300000e+00	1.964039e-04	
82	1.315088e-03	1.797116e+00	3.300000e+00	1.964039e-04	
83	1.335088e-03	1.797117e+00	3.300000e+00	1.964039e-04	
84	1.355088e-03	1.797116e+00	3.300000e+00	1.964039e-04	
85	1.375088e-03	1.797117e+00	3.300000e+00	1.964039e-04	
86	1.395088e-03	1.797116e+00	3.300000e+00	1.964039e-04	
87	1.415088e-03	1.797116e+00	3.300000e+00	1.964039e-04	
88	1.435088e-03	1.797116e+00	3.300000e+00	1.964039e-04	
89	1.455088e-03	1.797116e+00	3.300000e+00	1.964039e-04	
90	1.475088e-03	1.797116e+00	3.300000e+00	1.964039e-04	
91	1.495088e-03	1.797116e+00	3.300000e+00	1.964039e-04	
92	1.515088e-03	1.797116e+00	3.300000e+00	1.964039e-04	
93	1.535088e-03	1.797116e+00	3.300000e+00	1.964039e-04	
94	1.555088e-03	1.797116e+00	3.300000e+00	1.964039e-04	
95	1.575088e-03	1.797116e+00	3.300000e+00	1.964039e-04	
96	1.595088e-03	1.797116e+00	3.300000e+00	1.964039e-04	
97	1.615088e-03	1.797116e+00	3.300000e+00	1.964039e-04	
98	1.635088e-03	1.797117e+00	3.300000e+00	1.964039e-04	
99	1.655088e-03	1.797117e+00	3.300000e+00	1.964040e-04	
100	1.675088e-03	1.797119e+00	3.300000e+00	1.964042e-04	
101	1.695088e-03	1.797122e+00	3.300000e+00	1.964045e-04	
102	1.715088e-03	1.797125e+00	3.300000e+00	1.964049e-04	
103	1.735088e-03	1.797129e+00	3.300000e+00	1.964053e-04	
104	1.755088e-03	1.797134e+00	3.300000e+00	1.964058e-04	
105	1.775088e-03	1.797140e+00	3.300000e+00	1.964064e-04	
106	1.795088e-03	1.797145e+00	3.300000e+00	1.964071e-04	
107	1.815088e-03	1.797152e+00	3.300000e+00	1.964078e-04	
108	1.835088e-03	1.797159e+00	3.300000e+00	1.964085e-04	
109	1.855088e-03	1.797166e+00	3.300000e+00	1.964093e-04	
110	1.875088e-03	1.797173e+00	3.300000e+00	1.964101e-04	
111	1.895088e-03	1.797180e+00	3.300000e+00	1.964109e-04	
112	1.915088e-03	1.797188e+00	3.300000e+00	1.964117e-04	

Index   time            v(vin)          v(en)           v(pgate)        
--------------------------------------------------------------------------------
113	1.935088e-03	1.797196e+00	3.300000e+00	1.964126e-04	
114	1.955088e-03	1.797204e+00	3.300000e+00	1.964135e-04	
115	1.975088e-03	1.797212e+00	3.300000e+00	1.964144e-04	
116	1.995088e-03	1.797221e+00	3.300000e+00	1.964153e-04	
117	2.015088e-03	1.797229e+00	3.300000e+00	1.964162e-04	
118	2.035088e-03	1.797237e+00	3.300000e+00	1.964171e-04	
119	2.055088e-03	1.797245e+00	3.300000e+00	1.964179e-04	
120	2.075088e-03	1.797253e+00	3.300000e+00	1.964188e-04	
121	2.095088e-03	1.797261e+00	3.300000e+00	1.964197e-04	
122	2.115088e-03	1.797269e+00	3.300000e+00	1.964206e-04	
123	2.135088e-03	1.797277e+00	3.300000e+00	1.964214e-04	
124	2.155088e-03	1.797285e+00	3.300000e+00	1.964223e-04	
125	2.175088e-03	1.797292e+00	3.300000e+00	1.964231e-04	
126	2.195088e-03	1.797300e+00	3.300000e+00	1.964239e-04	
127	2.215088e-03	1.797307e+00	3.300000e+00	1.964247e-04	
128	2.235088e-03	1.797314e+00	3.300000e+00	1.964255e-04	
129	2.255088e-03	1.797321e+00	3.300000e+00	1.964262e-04	
130	2.275088e-03	1.797328e+00	3.300000e+00	1.964270e-04	
131	2.295088e-03	1.797334e+00	3.300000e+00	1.964277e-04	
132	2.315088e-03	1.797341e+00	3.300000e+00	1.964284e-04	
133	2.335088e-03	1.797347e+00	3.300000e+00	1.964291e-04	
134	2.355088e-03	1.797353e+00	3.300000e+00	1.964298e-04	
135	2.375088e-03	1.797359e+00	3.300000e+00	1.964304e-04	
136	2.395088e-03	1.797365e+00	3.300000e+00	1.964310e-04	
137	2.415088e-03	1.797370e+00	3.300000e+00	1.964316e-04	
138	2.435088e-03	1.797376e+00	3.300000e+00	1.964322e-04	
139	2.455088e-03	1.797381e+00	3.300000e+00	1.964328e-04	
140	2.475088e-03	1.797386e+00	3.300000e+00	1.964333e-04	
141	2.495088e-03	1.797391e+00	3.300000e+00	1.964339e-04	
142	2.515088e-03	1.797395e+00	3.300000e+00	1.964344e-04	
143	2.535088e-03	1.797400e+00	3.300000e+00	1.964349e-04	
144	2.555088e-03	1.797404e+00	3.300000e+00	1.964353e-04	
145	2.575088e-03	1.797408e+00	3.300000e+00	1.964358e-04	
146	2.595088e-03	1.797412e+00	3.300000e+00	1.964362e-04	
147	2.615088e-03	1.797416e+00	3.300000e+00	1.964367e-04	
148	2.635088e-03	1.797420e+00	3.300000e+00	1.964371e-04	
149	2.655088e-03	1.797424e+00	3.300000e+00	1.964375e-04	
150	2.675088e-03	1.797427e+00	3.300000e+00	1.964378e-04	
151	2.695088e-03	1.797430e+00	3.300000e+00	1.964382e-04	
152	2.715088e-03	1.797434e+00	3.300000e+00	1.964385e-04	
153	2.735088e-03	1.797437e+00	3.300000e+00	1.964389e-04	
154	2.755088e-03	1.797440e+00	3.300000e+00	1.964392e-04	
155	2.775088e-03	1.797442e+00	3.300000e+00	1.964395e-04	
156	2.795088e-03	1.797445e+00	3.300000e+00	1.964398e-04	
157	2.815088e-03	1.797448e+00	3.300000e+00	1.964401e-04	
158	2.835088e-03	1.797450e+00	3.300000e+00	1.964404e-04	
159	2.855088e-03	1.797452e+00	3.300000e+00	1.964406e-04	
160	2.875088e-03	1.797455e+00	3.300000e+00	1.964409e-04	
161	2.895088e-03	1.797457e+00	3.300000e+00	1.964411e-04	
162	2.915088e-03	1.797459e+00	3.300000e+00	1.964413e-04	
163	2.935088e-03	1.797461e+00	3.300000e+00	1.964416e-04	
164	2.955088e-03	1.797463e+00	3.300000e+00	1.964418e-04	
165	2.975088e-03	1.797465e+00	3.300000e+00	1.964420e-04	
166	2.995088e-03	1.797467e+00	3.300000e+00	1.964422e-04	
167	3.015088e-03	1.797468e+00	3.300000e+00	1.964423e-04	
168	3.035088e-03	1.797470e+00	3.300000e+00	1.964425e-04	
169	3.055088e-03	1.797471e+00	3.300000e+00	1.964427e-04	
170	3.075088e-03	1.797473e+00	3.300000e+00	1.964428e-04	

Index   time            v(vin)          v(en)           v(pgate)        
--------------------------------------------------------------------------------
171	3.095088e-03	1.797474e+00	3.300000e+00	1.964430e-04	
172	3.115088e-03	1.797476e+00	3.300000e+00	1.964431e-04	
173	3.135088e-03	1.797477e+00	3.300000e+00	1.964433e-04	
174	3.155088e-03	1.797478e+00	3.300000e+00	1.964434e-04	
175	3.175088e-03	1.797479e+00	3.300000e+00	1.964436e-04	
176	3.195088e-03	1.797480e+00	3.300000e+00	1.964437e-04	
177	3.215088e-03	1.797482e+00	3.300000e+00	1.964438e-04	
178	3.235088e-03	1.797483e+00	3.300000e+00	1.964439e-04	
179	3.255088e-03	1.797484e+00	3.300000e+00	1.964440e-04	
180	3.275088e-03	1.797485e+00	3.300000e+00	1.964441e-04	
181	3.295088e-03	1.797485e+00	3.300000e+00	1.964442e-04	
182	3.315088e-03	1.797486e+00	3.300000e+00	1.964443e-04	
183	3.335088e-03	1.797487e+00	3.300000e+00	1.964444e-04	
184	3.355088e-03	1.797488e+00	3.300000e+00	1.964445e-04	
185	3.375088e-03	1.797489e+00	3.300000e+00	1.964446e-04	
186	3.395088e-03	1.797489e+00	3.300000e+00	1.964446e-04	
187	3.415088e-03	1.797490e+00	3.300000e+00	1.964447e-04	
188	3.435088e-03	1.797491e+00	3.300000e+00	1.964448e-04	
189	3.455088e-03	1.797491e+00	3.300000e+00	1.964449e-04	
190	3.475088e-03	1.797492e+00	3.300000e+00	1.964449e-04	
191	3.495088e-03	1.797492e+00	3.300000e+00	1.964450e-04	
192	3.515088e-03	1.797493e+00	3.300000e+00	1.964450e-04	
193	3.535088e-03	1.797493e+00	3.300000e+00	1.964451e-04	
194	3.555088e-03	1.797494e+00	3.300000e+00	1.964451e-04	
195	3.575088e-03	1.797494e+00	3.300000e+00	1.964452e-04	
196	3.595088e-03	1.797495e+00	3.300000e+00	1.964452e-04	
197	3.615088e-03	1.797495e+00	3.300000e+00	1.964453e-04	
198	3.635088e-03	1.797496e+00	3.300000e+00	1.964453e-04	
199	3.655088e-03	1.797496e+00	3.300000e+00	1.964454e-04	
200	3.675088e-03	1.797496e+00	3.300000e+00	1.964454e-04	
201	3.695088e-03	1.797497e+00	3.300000e+00	1.964455e-04	
202	3.715088e-03	1.797497e+00	3.300000e+00	1.964455e-04	
203	3.735088e-03	1.797498e+00	3.300000e+00	1.964455e-04	
204	3.755088e-03	1.797498e+00	3.300000e+00	1.964456e-04	
205	3.775088e-03	1.797498e+00	3.300000e+00	1.964456e-04	
206	3.795088e-03	1.797498e+00	3.300000e+00	1.964456e-04	
207	3.815088e-03	1.797499e+00	3.300000e+00	1.964457e-04	
208	3.835088e-03	1.797499e+00	3.300000e+00	1.964457e-04	
209	3.855088e-03	1.797499e+00	3.300000e+00	1.964457e-04	
210	3.875088e-03	1.797499e+00	3.300000e+00	1.964457e-04	
211	3.895088e-03	1.797500e+00	3.300000e+00	1.964458e-04	
212	3.915088e-03	1.797500e+00	3.300000e+00	1.964458e-04	
213	3.935088e-03	1.797500e+00	3.300000e+00	1.964458e-04	
214	3.955088e-03	1.797500e+00	3.300000e+00	1.964458e-04	
215	3.975088e-03	1.797500e+00	3.300000e+00	1.964459e-04	
216	3.995088e-03	1.797501e+00	3.300000e+00	1.964459e-04	
217	4.015088e-03	1.797501e+00	3.300000e+00	1.964459e-04	
218	4.035088e-03	1.797501e+00	3.300000e+00	1.964459e-04	
219	4.055088e-03	1.797501e+00	3.300000e+00	1.964459e-04	
220	4.075088e-03	1.797501e+00	3.300000e+00	1.964459e-04	
221	4.095088e-03	1.797501e+00	3.300000e+00	1.964460e-04	
222	4.115088e-03	1.797501e+00	3.300000e+00	1.964460e-04	
223	4.135088e-03	1.797502e+00	3.300000e+00	1.964460e-04	
224	4.155088e-03	1.797502e+00	3.300000e+00	1.964460e-04	
225	4.175088e-03	1.797502e+00	3.300000e+00	1.964460e-04	
226	4.195088e-03	1.797502e+00	3.300000e+00	1.964460e-04	
227	4.215088e-03	1.797502e+00	3.300000e+00	1.964460e-04	
228	4.235088e-03	1.797502e+00	3.300000e+00	1.964460e-04	

Index   time            v(vin)          v(en)           v(pgate)        
--------------------------------------------------------------------------------
229	4.255088e-03	1.797502e+00	3.300000e+00	1.964461e-04	
230	4.275088e-03	1.797502e+00	3.300000e+00	1.964461e-04	
231	4.295088e-03	1.797502e+00	3.300000e+00	1.964461e-04	
232	4.315088e-03	1.797502e+00	3.300000e+00	1.964461e-04	
233	4.335088e-03	1.797503e+00	3.300000e+00	1.964461e-04	
234	4.355088e-03	1.797503e+00	3.300000e+00	1.964461e-04	
235	4.375088e-03	1.797503e+00	3.300000e+00	1.964461e-04	
236	4.395088e-03	1.797503e+00	3.300000e+00	1.964461e-04	
237	4.415088e-03	1.797503e+00	3.300000e+00	1.964461e-04	
238	4.435088e-03	1.797503e+00	3.300000e+00	1.964461e-04	
239	4.455088e-03	1.797503e+00	3.300000e+00	1.964461e-04	
240	4.475088e-03	1.797503e+00	3.300000e+00	1.964461e-04	
241	4.495088e-03	1.797503e+00	3.300000e+00	1.964461e-04	
242	4.515088e-03	1.797503e+00	3.300000e+00	1.964461e-04	
243	4.535088e-03	1.797503e+00	3.300000e+00	1.964462e-04	
244	4.555088e-03	1.797503e+00	3.300000e+00	1.964462e-04	
245	4.575088e-03	1.797503e+00	3.300000e+00	1.964462e-04	
246	4.595088e-03	1.797503e+00	3.300000e+00	1.964462e-04	
247	4.615088e-03	1.797503e+00	3.300000e+00	1.964462e-04	
248	4.635088e-03	1.797503e+00	3.300000e+00	1.964462e-04	
249	4.655088e-03	1.797503e+00	3.300000e+00	1.964462e-04	
250	4.675088e-03	1.797503e+00	3.300000e+00	1.964462e-04	
251	4.695088e-03	1.797503e+00	3.300000e+00	1.964462e-04	
252	4.715088e-03	1.797504e+00	3.300000e+00	1.964462e-04	
253	4.735088e-03	1.797504e+00	3.300000e+00	1.964462e-04	
254	4.755088e-03	1.797504e+00	3.300000e+00	1.964462e-04	
255	4.775088e-03	1.797504e+00	3.300000e+00	1.964462e-04	
256	4.795088e-03	1.797504e+00	3.300000e+00	1.964462e-04	
257	4.815088e-03	1.797504e+00	3.300000e+00	1.964462e-04	
258	4.835088e-03	1.797504e+00	3.300000e+00	1.964462e-04	
259	4.855088e-03	1.797504e+00	3.300000e+00	1.964462e-04	
260	4.875088e-03	1.797504e+00	3.300000e+00	1.964462e-04	
261	4.895088e-03	1.797504e+00	3.300000e+00	1.964462e-04	
262	4.915088e-03	1.797504e+00	3.300000e+00	1.964462e-04	
263	4.935088e-03	1.797504e+00	3.300000e+00	1.964462e-04	
264	4.955088e-03	1.797504e+00	3.300000e+00	1.964462e-04	
265	4.975088e-03	1.797504e+00	3.300000e+00	1.964462e-04	
266	4.995088e-03	1.797504e+00	3.300000e+00	1.964462e-04	
267	5.015088e-03	1.797504e+00	3.300000e+00	1.964462e-04	
268	5.020000e-03	1.797504e+00	3.300000e+00	1.964462e-04	
269	5.022000e-03	1.797504e+00	2.970000e+00	2.291722e-04	
270	5.026000e-03	1.797504e+00	2.310000e+00	3.440919e-04	
271	5.034000e-03	1.799584e+00	9.900000e-01	1.799584e+00	
272	5.040000e-03	1.800241e+00	0.000000e+00	1.800241e+00	
273	5.041600e-03	1.800080e+00	0.000000e+00	1.800080e+00	
274	5.044800e-03	1.799973e+00	0.000000e+00	1.799973e+00	
275	5.051200e-03	1.800016e+00	0.000000e+00	1.800016e+00	
276	5.064000e-03	1.799988e+00	0.000000e+00	1.799987e+00	
277	5.084000e-03	1.800011e+00	0.000000e+00	1.800010e+00	
278	5.104000e-03	1.799991e+00	0.000000e+00	1.799991e+00	
279	5.124000e-03	1.800008e+00	0.000000e+00	1.800008e+00	
280	5.144000e-03	1.799993e+00	0.000000e+00	1.799993e+00	
281	5.164000e-03	1.800006e+00	0.000000e+00	1.800005e+00	
282	5.184000e-03	1.799995e+00	0.000000e+00	1.799995e+00	
283	5.204000e-03	1.800004e+00	0.000000e+00	1.800004e+00	
284	5.224000e-03	1.799997e+00	0.000000e+00	1.799996e+00	
285	5.244000e-03	1.800003e+00	0.000000e+00	1.800003e+00	
286	5.264000e-03	1.799997e+00	0.000000e+00	1.799997e+00	

Index   time            v(vin)          v(en)           v(pgate)        
--------------------------------------------------------------------------------
287	5.284000e-03	1.800002e+00	0.000000e+00	1.800002e+00	
288	5.304000e-03	1.799998e+00	0.000000e+00	1.799998e+00	
289	5.324000e-03	1.800002e+00	0.000000e+00	1.800001e+00	
290	5.344000e-03	1.799999e+00	0.000000e+00	1.799998e+00	
291	5.364000e-03	1.800001e+00	0.000000e+00	1.800001e+00	
292	5.384000e-03	1.799999e+00	0.000000e+00	1.799999e+00	
293	5.404000e-03	1.800001e+00	0.000000e+00	1.800001e+00	
294	5.424000e-03	1.799999e+00	0.000000e+00	1.799999e+00	
295	5.444000e-03	1.800001e+00	0.000000e+00	1.800000e+00	
296	5.464000e-03	1.799999e+00	0.000000e+00	1.799999e+00	
297	5.484000e-03	1.800000e+00	0.000000e+00	1.800000e+00	
298	5.504000e-03	1.800000e+00	0.000000e+00	1.799999e+00	
299	5.524000e-03	1.800000e+00	0.000000e+00	1.800000e+00	
300	5.544000e-03	1.800000e+00	0.000000e+00	1.800000e+00	
301	5.564000e-03	1.800000e+00	0.000000e+00	1.800000e+00	
302	5.584000e-03	1.800000e+00	0.000000e+00	1.800000e+00	
303	5.604000e-03	1.800000e+00	0.000000e+00	1.800000e+00	
304	5.624000e-03	1.800000e+00	0.000000e+00	1.800000e+00	
305	5.644000e-03	1.800000e+00	0.000000e+00	1.800000e+00	
306	5.664000e-03	1.800000e+00	0.000000e+00	1.800000e+00	
307	5.684000e-03	1.800000e+00	0.000000e+00	1.800000e+00	
308	5.704000e-03	1.800000e+00	0.000000e+00	1.800000e+00	
309	5.724000e-03	1.800000e+00	0.000000e+00	1.800000e+00	
310	5.744000e-03	1.800000e+00	0.000000e+00	1.800000e+00	
311	5.764000e-03	1.800000e+00	0.000000e+00	1.800000e+00	
312	5.784000e-03	1.800000e+00	0.000000e+00	1.800000e+00	
313	5.804000e-03	1.800000e+00	0.000000e+00	1.800000e+00	
314	5.824000e-03	1.800000e+00	0.000000e+00	1.800000e+00	
315	5.844000e-03	1.800000e+00	0.000000e+00	1.800000e+00	
316	5.864000e-03	1.800000e+00	0.000000e+00	1.800000e+00	
317	5.884000e-03	1.800000e+00	0.000000e+00	1.800000e+00	
318	5.904000e-03	1.800000e+00	0.000000e+00	1.800000e+00	
319	5.924000e-03	1.800000e+00	0.000000e+00	1.800000e+00	
320	5.944000e-03	1.800000e+00	0.000000e+00	1.800000e+00	
321	5.964000e-03	1.800000e+00	0.000000e+00	1.800000e+00	
322	5.984000e-03	1.800000e+00	0.000000e+00	1.800000e+00	
323	6.004000e-03	1.800000e+00	0.000000e+00	1.800000e+00	
324	6.024000e-03	1.800000e+00	0.000000e+00	1.800000e+00	
325	6.044000e-03	1.800000e+00	0.000000e+00	1.800000e+00	
326	6.064000e-03	1.800000e+00	0.000000e+00	1.800000e+00	
327	6.084000e-03	1.800000e+00	0.000000e+00	1.800000e+00	
328	6.104000e-03	1.800000e+00	0.000000e+00	1.800000e+00	
329	6.124000e-03	1.800000e+00	0.000000e+00	1.800000e+00	
330	6.144000e-03	1.800000e+00	0.000000e+00	1.800000e+00	
331	6.164000e-03	1.800000e+00	0.000000e+00	1.800000e+00	
332	6.184000e-03	1.800000e+00	0.000000e+00	1.800000e+00	
333	6.204000e-03	1.800000e+00	0.000000e+00	1.800000e+00	
334	6.224000e-03	1.800000e+00	0.000000e+00	1.800000e+00	
335	6.244000e-03	1.800000e+00	0.000000e+00	1.800000e+00	
336	6.264000e-03	1.800000e+00	0.000000e+00	1.800000e+00	
337	6.284000e-03	1.800000e+00	0.000000e+00	1.800000e+00	
338	6.304000e-03	1.800000e+00	0.000000e+00	1.800000e+00	
339	6.324000e-03	1.800000e+00	0.000000e+00	1.800000e+00	
340	6.344000e-03	1.800000e+00	0.000000e+00	1.800000e+00	
341	6.364000e-03	1.800000e+00	0.000000e+00	1.800000e+00	
342	6.384000e-03	1.800000e+00	0.000000e+00	1.800000e+00	
343	6.404000e-03	1.800000e+00	0.000000e+00	1.800000e+00	
344	6.424000e-03	1.800000e+00	0.000000e+00	1.800000e+00	

Index   time            v(vin)          v(en)           v(pgate)        
--------------------------------------------------------------------------------
345	6.444000e-03	1.800000e+00	0.000000e+00	1.800000e+00	
346	6.464000e-03	1.800000e+00	0.000000e+00	1.800000e+00	
347	6.484000e-03	1.800000e+00	0.000000e+00	1.800000e+00	
348	6.504000e-03	1.800000e+00	0.000000e+00	1.800000e+00	
349	6.524000e-03	1.800000e+00	0.000000e+00	1.800000e+00	
350	6.544000e-03	1.800000e+00	0.000000e+00	1.800000e+00	
351	6.564000e-03	1.800000e+00	0.000000e+00	1.800000e+00	
352	6.584000e-03	1.800000e+00	0.000000e+00	1.800000e+00	
353	6.604000e-03	1.800000e+00	0.000000e+00	1.800000e+00	
354	6.624000e-03	1.800000e+00	0.000000e+00	1.800000e+00	
355	6.644000e-03	1.800000e+00	0.000000e+00	1.800000e+00	
356	6.664000e-03	1.800000e+00	0.000000e+00	1.800000e+00	
357	6.684000e-03	1.800000e+00	0.000000e+00	1.800000e+00	
358	6.704000e-03	1.800000e+00	0.000000e+00	1.800000e+00	
359	6.724000e-03	1.800000e+00	0.000000e+00	1.800000e+00	
360	6.744000e-03	1.800000e+00	0.000000e+00	1.800000e+00	
361	6.764000e-03	1.800000e+00	0.000000e+00	1.800000e+00	
362	6.784000e-03	1.800000e+00	0.000000e+00	1.800000e+00	
363	6.804000e-03	1.800000e+00	0.000000e+00	1.800000e+00	
364	6.824000e-03	1.800000e+00	0.000000e+00	1.800000e+00	
365	6.844000e-03	1.800000e+00	0.000000e+00	1.800000e+00	
366	6.864000e-03	1.800000e+00	0.000000e+00	1.800000e+00	
367	6.884000e-03	1.800000e+00	0.000000e+00	1.800000e+00	
368	6.904000e-03	1.800000e+00	0.000000e+00	1.800000e+00	
369	6.924000e-03	1.800000e+00	0.000000e+00	1.800000e+00	
370	6.944000e-03	1.800000e+00	0.000000e+00	1.800000e+00	
371	6.964000e-03	1.800000e+00	0.000000e+00	1.800000e+00	
372	6.984000e-03	1.800000e+00	0.000000e+00	1.800000e+00	
373	7.004000e-03	1.800000e+00	0.000000e+00	1.800000e+00	
374	7.024000e-03	1.800000e+00	0.000000e+00	1.800000e+00	
375	7.044000e-03	1.800000e+00	0.000000e+00	1.800000e+00	
376	7.064000e-03	1.800000e+00	0.000000e+00	1.800000e+00	
377	7.084000e-03	1.800000e+00	0.000000e+00	1.800000e+00	
378	7.104000e-03	1.800000e+00	0.000000e+00	1.800000e+00	
379	7.124000e-03	1.800000e+00	0.000000e+00	1.800000e+00	
380	7.144000e-03	1.800000e+00	0.000000e+00	1.800000e+00	
381	7.164000e-03	1.800000e+00	0.000000e+00	1.800000e+00	
382	7.184000e-03	1.800000e+00	0.000000e+00	1.800000e+00	
383	7.204000e-03	1.800000e+00	0.000000e+00	1.800000e+00	
384	7.224000e-03	1.800000e+00	0.000000e+00	1.800000e+00	
385	7.244000e-03	1.800000e+00	0.000000e+00	1.800000e+00	
386	7.264000e-03	1.800000e+00	0.000000e+00	1.800000e+00	
387	7.284000e-03	1.800000e+00	0.000000e+00	1.800000e+00	
388	7.304000e-03	1.800000e+00	0.000000e+00	1.800000e+00	
389	7.324000e-03	1.800000e+00	0.000000e+00	1.800000e+00	
390	7.344000e-03	1.800000e+00	0.000000e+00	1.800000e+00	
391	7.364000e-03	1.800000e+00	0.000000e+00	1.800000e+00	
392	7.384000e-03	1.800000e+00	0.000000e+00	1.800000e+00	
393	7.404000e-03	1.800000e+00	0.000000e+00	1.800000e+00	
394	7.424000e-03	1.800000e+00	0.000000e+00	1.800000e+00	
395	7.444000e-03	1.800000e+00	0.000000e+00	1.800000e+00	
396	7.464000e-03	1.800000e+00	0.000000e+00	1.800000e+00	
397	7.484000e-03	1.800000e+00	0.000000e+00	1.800000e+00	
398	7.504000e-03	1.800000e+00	0.000000e+00	1.800000e+00	
399	7.524000e-03	1.800000e+00	0.000000e+00	1.800000e+00	
400	7.544000e-03	1.800000e+00	0.000000e+00	1.800000e+00	
401	7.564000e-03	1.800000e+00	0.000000e+00	1.800000e+00	
402	7.584000e-03	1.800000e+00	0.000000e+00	1.800000e+00	

Index   time            v(vin)          v(en)           v(pgate)        
--------------------------------------------------------------------------------
403	7.604000e-03	1.800000e+00	0.000000e+00	1.800000e+00	
404	7.624000e-03	1.800000e+00	0.000000e+00	1.800000e+00	
405	7.644000e-03	1.800000e+00	0.000000e+00	1.800000e+00	
406	7.664000e-03	1.800000e+00	0.000000e+00	1.800000e+00	
407	7.684000e-03	1.800000e+00	0.000000e+00	1.800000e+00	
408	7.704000e-03	1.800000e+00	0.000000e+00	1.800000e+00	
409	7.724000e-03	1.800000e+00	0.000000e+00	1.800000e+00	
410	7.744000e-03	1.800000e+00	0.000000e+00	1.800000e+00	
411	7.764000e-03	1.800000e+00	0.000000e+00	1.800000e+00	
412	7.784000e-03	1.800000e+00	0.000000e+00	1.800000e+00	
413	7.804000e-03	1.800000e+00	0.000000e+00	1.800000e+00	
414	7.824000e-03	1.800000e+00	0.000000e+00	1.800000e+00	
415	7.844000e-03	1.800000e+00	0.000000e+00	1.800000e+00	
416	7.864000e-03	1.800000e+00	0.000000e+00	1.800000e+00	
417	7.884000e-03	1.800000e+00	0.000000e+00	1.800000e+00	
418	7.904000e-03	1.800000e+00	0.000000e+00	1.800000e+00	
419	7.924000e-03	1.800000e+00	0.000000e+00	1.800000e+00	
420	7.944000e-03	1.800000e+00	0.000000e+00	1.800000e+00	
421	7.964000e-03	1.800000e+00	0.000000e+00	1.800000e+00	
422	7.984000e-03	1.800000e+00	0.000000e+00	1.800000e+00	
423	8.004000e-03	1.800000e+00	0.000000e+00	1.800000e+00	
424	8.024000e-03	1.800000e+00	0.000000e+00	1.800000e+00	
425	8.044000e-03	1.800000e+00	0.000000e+00	1.800000e+00	
426	8.064000e-03	1.800000e+00	0.000000e+00	1.800000e+00	
427	8.084000e-03	1.800000e+00	0.000000e+00	1.800000e+00	
428	8.104000e-03	1.800000e+00	0.000000e+00	1.800000e+00	
429	8.124000e-03	1.800000e+00	0.000000e+00	1.800000e+00	
430	8.144000e-03	1.800000e+00	0.000000e+00	1.800000e+00	
431	8.164000e-03	1.800000e+00	0.000000e+00	1.800000e+00	
432	8.184000e-03	1.800000e+00	0.000000e+00	1.800000e+00	
433	8.204000e-03	1.800000e+00	0.000000e+00	1.800000e+00	
434	8.224000e-03	1.800000e+00	0.000000e+00	1.800000e+00	
435	8.244000e-03	1.800000e+00	0.000000e+00	1.800000e+00	
436	8.264000e-03	1.800000e+00	0.000000e+00	1.800000e+00	
437	8.284000e-03	1.800000e+00	0.000000e+00	1.800000e+00	
438	8.304000e-03	1.800000e+00	0.000000e+00	1.800000e+00	
439	8.324000e-03	1.800000e+00	0.000000e+00	1.800000e+00	
440	8.344000e-03	1.800000e+00	0.000000e+00	1.800000e+00	
441	8.364000e-03	1.800000e+00	0.000000e+00	1.800000e+00	
442	8.384000e-03	1.800000e+00	0.000000e+00	1.800000e+00	
443	8.404000e-03	1.800000e+00	0.000000e+00	1.800000e+00	
444	8.424000e-03	1.800000e+00	0.000000e+00	1.800000e+00	
445	8.444000e-03	1.800000e+00	0.000000e+00	1.800000e+00	
446	8.464000e-03	1.800000e+00	0.000000e+00	1.800000e+00	
447	8.484000e-03	1.800000e+00	0.000000e+00	1.800000e+00	
448	8.504000e-03	1.800000e+00	0.000000e+00	1.800000e+00	
449	8.524000e-03	1.800000e+00	0.000000e+00	1.800000e+00	
450	8.544000e-03	1.800000e+00	0.000000e+00	1.800000e+00	
451	8.564000e-03	1.800000e+00	0.000000e+00	1.800000e+00	
452	8.584000e-03	1.800000e+00	0.000000e+00	1.800000e+00	
453	8.604000e-03	1.800000e+00	0.000000e+00	1.800000e+00	
454	8.624000e-03	1.800000e+00	0.000000e+00	1.800000e+00	
455	8.644000e-03	1.800000e+00	0.000000e+00	1.800000e+00	
456	8.664000e-03	1.800000e+00	0.000000e+00	1.800000e+00	
457	8.684000e-03	1.800000e+00	0.000000e+00	1.800000e+00	
458	8.704000e-03	1.800000e+00	0.000000e+00	1.800000e+00	
459	8.724000e-03	1.800000e+00	0.000000e+00	1.800000e+00	
460	8.744000e-03	1.800000e+00	0.000000e+00	1.800000e+00	

Index   time            v(vin)          v(en)           v(pgate)        
--------------------------------------------------------------------------------
461	8.764000e-03	1.800000e+00	0.000000e+00	1.800000e+00	
462	8.784000e-03	1.800000e+00	0.000000e+00	1.800000e+00	
463	8.804000e-03	1.800000e+00	0.000000e+00	1.800000e+00	
464	8.824000e-03	1.800000e+00	0.000000e+00	1.800000e+00	
465	8.844000e-03	1.800000e+00	0.000000e+00	1.800000e+00	
466	8.864000e-03	1.800000e+00	0.000000e+00	1.800000e+00	
467	8.884000e-03	1.800000e+00	0.000000e+00	1.800000e+00	
468	8.904000e-03	1.800000e+00	0.000000e+00	1.800000e+00	
469	8.924000e-03	1.800000e+00	0.000000e+00	1.800000e+00	
470	8.944000e-03	1.800000e+00	0.000000e+00	1.800000e+00	
471	8.964000e-03	1.800000e+00	0.000000e+00	1.800000e+00	
472	8.984000e-03	1.800000e+00	0.000000e+00	1.800000e+00	
473	9.000000e-03	1.800000e+00	0.000000e+00	1.800000e+00	
474	9.002000e-03	1.800000e+00	3.300000e-01	1.800000e+00	
475	9.006000e-03	1.800000e+00	9.900000e-01	1.800000e+00	
476	9.010727e-03	1.797844e+00	1.769943e+00	5.848686e-04	
477	9.015345e-03	1.796764e+00	2.531863e+00	2.938278e-04	
478	9.020000e-03	1.797290e+00	3.300000e+00	1.964145e-04	
479	9.020924e-03	1.797197e+00	3.300000e+00	1.964127e-04	
480	9.022771e-03	1.797111e+00	3.300000e+00	1.964032e-04	
481	9.026465e-03	1.797119e+00	3.300000e+00	1.964042e-04	
482	9.033853e-03	1.797115e+00	3.300000e+00	1.964037e-04	
483	9.048630e-03	1.797118e+00	3.300000e+00	1.964040e-04	
484	9.068630e-03	1.797115e+00	3.300000e+00	1.964038e-04	
485	9.088630e-03	1.797117e+00	3.300000e+00	1.964040e-04	
486	9.108630e-03	1.797116e+00	3.300000e+00	1.964038e-04	
487	9.128630e-03	1.797117e+00	3.300000e+00	1.964040e-04	
488	9.148630e-03	1.797116e+00	3.300000e+00	1.964038e-04	
489	9.168630e-03	1.797117e+00	3.300000e+00	1.964039e-04	
490	9.188630e-03	1.797116e+00	3.300000e+00	1.964038e-04	
491	9.208630e-03	1.797117e+00	3.300000e+00	1.964039e-04	
492	9.228630e-03	1.797116e+00	3.300000e+00	1.964039e-04	
493	9.248630e-03	1.797117e+00	3.300000e+00	1.964039e-04	
494	9.268630e-03	1.797116e+00	3.300000e+00	1.964039e-04	
495	9.288630e-03	1.797117e+00	3.300000e+00	1.964039e-04	
496	9.308630e-03	1.797116e+00	3.300000e+00	1.964039e-04	
497	9.328630e-03	1.797117e+00	3.300000e+00	1.964039e-04	
498	9.348630e-03	1.797116e+00	3.300000e+00	1.964039e-04	
499	9.368630e-03	1.797117e+00	3.300000e+00	1.964039e-04	
500	9.388630e-03	1.797116e+00	3.300000e+00	1.964039e-04	
501	9.408630e-03	1.797117e+00	3.300000e+00	1.964039e-04	
502	9.428630e-03	1.797116e+00	3.300000e+00	1.964039e-04	
503	9.448630e-03	1.797117e+00	3.300000e+00	1.964039e-04	
504	9.468630e-03	1.797116e+00	3.300000e+00	1.964039e-04	
505	9.488630e-03	1.797117e+00	3.300000e+00	1.964039e-04	
506	9.508630e-03	1.797116e+00	3.300000e+00	1.964039e-04	
507	9.528630e-03	1.797117e+00	3.300000e+00	1.964039e-04	
508	9.548630e-03	1.797116e+00	3.300000e+00	1.964039e-04	
509	9.568630e-03	1.797117e+00	3.300000e+00	1.964039e-04	
510	9.588630e-03	1.797116e+00	3.300000e+00	1.964039e-04	
511	9.608630e-03	1.797117e+00	3.300000e+00	1.964039e-04	
512	9.628630e-03	1.797117e+00	3.300000e+00	1.964039e-04	
513	9.648630e-03	1.797117e+00	3.300000e+00	1.964040e-04	
514	9.668630e-03	1.797119e+00	3.300000e+00	1.964042e-04	
515	9.688630e-03	1.797121e+00	3.300000e+00	1.964044e-04	
516	9.708630e-03	1.797125e+00	3.300000e+00	1.964048e-04	
517	9.728630e-03	1.797129e+00	3.300000e+00	1.964052e-04	
518	9.748630e-03	1.797134e+00	3.300000e+00	1.964058e-04	

Index   time            v(vin)          v(en)           v(pgate)        
--------------------------------------------------------------------------------
519	9.768630e-03	1.797139e+00	3.300000e+00	1.964063e-04	
520	9.788630e-03	1.797145e+00	3.300000e+00	1.964070e-04	
521	9.808630e-03	1.797151e+00	3.300000e+00	1.964077e-04	
522	9.828630e-03	1.797158e+00	3.300000e+00	1.964084e-04	
523	9.848630e-03	1.797165e+00	3.300000e+00	1.964091e-04	
524	9.868630e-03	1.797172e+00	3.300000e+00	1.964099e-04	
525	9.888630e-03	1.797179e+00	3.300000e+00	1.964108e-04	
526	9.908630e-03	1.797187e+00	3.300000e+00	1.964116e-04	
527	9.928630e-03	1.797195e+00	3.300000e+00	1.964125e-04	
528	9.948630e-03	1.797203e+00	3.300000e+00	1.964134e-04	
529	9.968630e-03	1.797211e+00	3.300000e+00	1.964142e-04	
530	9.988630e-03	1.797219e+00	3.300000e+00	1.964151e-04	
531	1.000863e-02	1.797228e+00	3.300000e+00	1.964160e-04	
532	1.002863e-02	1.797236e+00	3.300000e+00	1.964169e-04	
533	1.004863e-02	1.797244e+00	3.300000e+00	1.964178e-04	
534	1.006863e-02	1.797252e+00	3.300000e+00	1.964187e-04	
535	1.008863e-02	1.797260e+00	3.300000e+00	1.964196e-04	
536	1.010863e-02	1.797268e+00	3.300000e+00	1.964204e-04	
537	1.012863e-02	1.797276e+00	3.300000e+00	1.964213e-04	
538	1.014863e-02	1.797284e+00	3.300000e+00	1.964221e-04	
539	1.016863e-02	1.797291e+00	3.300000e+00	1.964230e-04	
540	1.018863e-02	1.797299e+00	3.300000e+00	1.964238e-04	
541	1.020863e-02	1.797306e+00	3.300000e+00	1.964246e-04	
542	1.022863e-02	1.797313e+00	3.300000e+00	1.964254e-04	
543	1.024863e-02	1.797320e+00	3.300000e+00	1.964261e-04	
544	1.026863e-02	1.797327e+00	3.300000e+00	1.964269e-04	
545	1.028863e-02	1.797333e+00	3.300000e+00	1.964276e-04	
546	1.030863e-02	1.797340e+00	3.300000e+00	1.964283e-04	
547	1.032863e-02	1.797346e+00	3.300000e+00	1.964290e-04	
548	1.034863e-02	1.797352e+00	3.300000e+00	1.964297e-04	
549	1.036863e-02	1.797358e+00	3.300000e+00	1.964303e-04	
550	1.038863e-02	1.797364e+00	3.300000e+00	1.964309e-04	
551	1.040863e-02	1.797369e+00	3.300000e+00	1.964315e-04	
552	1.042863e-02	1.797375e+00	3.300000e+00	1.964321e-04	
553	1.044863e-02	1.797380e+00	3.300000e+00	1.964327e-04	
554	1.046863e-02	1.797385e+00	3.300000e+00	1.964333e-04	
555	1.048863e-02	1.797390e+00	3.300000e+00	1.964338e-04	
556	1.050863e-02	1.797395e+00	3.300000e+00	1.964343e-04	
557	1.052863e-02	1.797399e+00	3.300000e+00	1.964348e-04	
558	1.054863e-02	1.797404e+00	3.300000e+00	1.964353e-04	
559	1.056863e-02	1.797408e+00	3.300000e+00	1.964357e-04	
560	1.058863e-02	1.797412e+00	3.300000e+00	1.964362e-04	
561	1.060863e-02	1.797416e+00	3.300000e+00	1.964366e-04	
562	1.062863e-02	1.797419e+00	3.300000e+00	1.964370e-04	
563	1.064863e-02	1.797423e+00	3.300000e+00	1.964374e-04	
564	1.066863e-02	1.797427e+00	3.300000e+00	1.964378e-04	
565	1.068863e-02	1.797430e+00	3.300000e+00	1.964381e-04	
566	1.070863e-02	1.797433e+00	3.300000e+00	1.964385e-04	
567	1.072863e-02	1.797436e+00	3.300000e+00	1.964388e-04	
568	1.074863e-02	1.797439e+00	3.300000e+00	1.964392e-04	
569	1.076863e-02	1.797442e+00	3.300000e+00	1.964395e-04	
570	1.078863e-02	1.797445e+00	3.300000e+00	1.964398e-04	
571	1.080863e-02	1.797447e+00	3.300000e+00	1.964400e-04	
572	1.082863e-02	1.797450e+00	3.300000e+00	1.964403e-04	
573	1.084863e-02	1.797452e+00	3.300000e+00	1.964406e-04	
574	1.086863e-02	1.797454e+00	3.300000e+00	1.964408e-04	
575	1.088863e-02	1.797457e+00	3.300000e+00	1.964411e-04	
576	1.090863e-02	1.797459e+00	3.300000e+00	1.964413e-04	

Index   time            v(vin)          v(en)           v(pgate)        
--------------------------------------------------------------------------------
577	1.092863e-02	1.797461e+00	3.300000e+00	1.964415e-04	
578	1.094863e-02	1.797463e+00	3.300000e+00	1.964417e-04	
579	1.096863e-02	1.797465e+00	3.300000e+00	1.964419e-04	
580	1.098863e-02	1.797466e+00	3.300000e+00	1.964421e-04	
581	1.100863e-02	1.797468e+00	3.300000e+00	1.964423e-04	
582	1.102863e-02	1.797470e+00	3.300000e+00	1.964425e-04	
583	1.104863e-02	1.797471e+00	3.300000e+00	1.964427e-04	
584	1.106863e-02	1.797473e+00	3.300000e+00	1.964428e-04	
585	1.108863e-02	1.797474e+00	3.300000e+00	1.964430e-04	
586	1.110863e-02	1.797475e+00	3.300000e+00	1.964431e-04	
587	1.112863e-02	1.797477e+00	3.300000e+00	1.964433e-04	
588	1.114863e-02	1.797478e+00	3.300000e+00	1.964434e-04	
589	1.116863e-02	1.797479e+00	3.300000e+00	1.964435e-04	
590	1.118863e-02	1.797480e+00	3.300000e+00	1.964437e-04	
591	1.120863e-02	1.797481e+00	3.300000e+00	1.964438e-04	
592	1.122863e-02	1.797482e+00	3.300000e+00	1.964439e-04	
593	1.124863e-02	1.797483e+00	3.300000e+00	1.964440e-04	
594	1.126863e-02	1.797484e+00	3.300000e+00	1.964441e-04	
595	1.128863e-02	1.797485e+00	3.300000e+00	1.964442e-04	
596	1.130863e-02	1.797486e+00	3.300000e+00	1.964443e-04	
597	1.132863e-02	1.797487e+00	3.300000e+00	1.964444e-04	
598	1.134863e-02	1.797488e+00	3.300000e+00	1.964445e-04	
599	1.136863e-02	1.797489e+00	3.300000e+00	1.964446e-04	
600	1.138863e-02	1.797489e+00	3.300000e+00	1.964446e-04	
601	1.140863e-02	1.797490e+00	3.300000e+00	1.964447e-04	
602	1.142863e-02	1.797491e+00	3.300000e+00	1.964448e-04	
603	1.144863e-02	1.797491e+00	3.300000e+00	1.964448e-04	
604	1.146863e-02	1.797492e+00	3.300000e+00	1.964449e-04	
605	1.148863e-02	1.797492e+00	3.300000e+00	1.964450e-04	
606	1.150863e-02	1.797493e+00	3.300000e+00	1.964450e-04	
607	1.152863e-02	1.797493e+00	3.300000e+00	1.964451e-04	
608	1.154863e-02	1.797494e+00	3.300000e+00	1.964451e-04	
609	1.156863e-02	1.797494e+00	3.300000e+00	1.964452e-04	
610	1.158863e-02	1.797495e+00	3.300000e+00	1.964452e-04	
611	1.160863e-02	1.797495e+00	3.300000e+00	1.964453e-04	
612	1.162863e-02	1.797496e+00	3.300000e+00	1.964453e-04	
613	1.164863e-02	1.797496e+00	3.300000e+00	1.964454e-04	
614	1.166863e-02	1.797496e+00	3.300000e+00	1.964454e-04	
615	1.168863e-02	1.797497e+00	3.300000e+00	1.964455e-04	
616	1.170863e-02	1.797497e+00	3.300000e+00	1.964455e-04	
617	1.172863e-02	1.797497e+00	3.300000e+00	1.964455e-04	
618	1.174863e-02	1.797498e+00	3.300000e+00	1.964456e-04	
619	1.176863e-02	1.797498e+00	3.300000e+00	1.964456e-04	
620	1.178863e-02	1.797498e+00	3.300000e+00	1.964456e-04	
621	1.180863e-02	1.797499e+00	3.300000e+00	1.964457e-04	
622	1.182863e-02	1.797499e+00	3.300000e+00	1.964457e-04	
623	1.184863e-02	1.797499e+00	3.300000e+00	1.964457e-04	
624	1.186863e-02	1.797499e+00	3.300000e+00	1.964457e-04	
625	1.188863e-02	1.797500e+00	3.300000e+00	1.964458e-04	
626	1.190863e-02	1.797500e+00	3.300000e+00	1.964458e-04	
627	1.192863e-02	1.797500e+00	3.300000e+00	1.964458e-04	
628	1.194863e-02	1.797500e+00	3.300000e+00	1.964458e-04	
629	1.196863e-02	1.797500e+00	3.300000e+00	1.964458e-04	
630	1.198863e-02	1.797501e+00	3.300000e+00	1.964459e-04	
631	1.200000e-02	1.797501e+00	3.300000e+00	1.964459e-04	

                           tb001-page5-power-boundary
                           Transient Analysis  Sat Jun 13 12:31:30  2026
--------------------------------------------------------------------------------
Index   time            v(vout)         
--------------------------------------------------------------------------------
0	0.000000e+00	6.400786e-11	
1	2.000000e-07	6.400786e-11	
2	4.000000e-07	6.400786e-11	
3	8.000000e-07	6.400786e-11	
4	1.600000e-06	6.400786e-11	
5	3.200000e-06	6.400786e-11	
6	6.400000e-06	6.400786e-11	
7	1.280000e-05	6.400786e-11	
8	2.560000e-05	6.400786e-11	
9	4.560000e-05	6.400786e-11	
10	6.560000e-05	6.400786e-11	
11	8.560000e-05	6.400786e-11	
12	1.056000e-04	6.400786e-11	
13	1.256000e-04	6.400786e-11	
14	1.456000e-04	6.400786e-11	
15	1.656000e-04	6.400786e-11	
16	1.856000e-04	6.400786e-11	
17	2.056000e-04	6.400786e-11	
18	2.256000e-04	6.400786e-11	
19	2.456000e-04	6.400786e-11	
20	2.656000e-04	6.400786e-11	
21	2.856000e-04	6.400786e-11	
22	3.056000e-04	6.400786e-11	
23	3.256000e-04	6.400786e-11	
24	3.456000e-04	6.400786e-11	
25	3.656000e-04	6.400786e-11	
26	3.856000e-04	6.400786e-11	
27	4.056000e-04	6.400786e-11	
28	4.256000e-04	6.400786e-11	
29	4.456000e-04	6.400786e-11	
30	4.656000e-04	6.400786e-11	
31	4.856000e-04	6.400786e-11	
32	5.056000e-04	6.400786e-11	
33	5.256000e-04	6.400786e-11	
34	5.456000e-04	6.400786e-11	
35	5.656000e-04	6.400786e-11	
36	5.856000e-04	6.400786e-11	
37	6.056000e-04	6.400786e-11	
38	6.256000e-04	6.400786e-11	
39	6.456000e-04	6.400786e-11	
40	6.656000e-04	6.400786e-11	
41	6.856000e-04	6.400786e-11	
42	7.056000e-04	6.400786e-11	
43	7.256000e-04	6.400786e-11	
44	7.456000e-04	6.400786e-11	
45	7.656000e-04	6.400786e-11	
46	7.856000e-04	6.400786e-11	
47	8.056000e-04	6.400786e-11	
48	8.256000e-04	6.400786e-11	
49	8.456000e-04	6.400786e-11	
50	8.656000e-04	6.400786e-11	
51	8.856000e-04	6.400786e-11	
52	9.056000e-04	6.400786e-11	
53	9.256000e-04	6.400786e-11	
54	9.456000e-04	6.400786e-11	

Index   time            v(vout)         
--------------------------------------------------------------------------------
55	9.656000e-04	6.400786e-11	
56	9.856000e-04	6.400786e-11	
57	1.000000e-03	6.400786e-11	
58	1.002000e-03	6.400786e-11	
59	1.006000e-03	6.400786e-11	
60	1.009751e-03	3.065942e-03	
61	1.013315e-03	8.873012e-03	
62	1.018874e-03	1.787780e-02	
63	1.020000e-03	1.969479e-02	
64	1.020557e-03	2.059211e-02	
65	1.021671e-03	2.238544e-02	
66	1.023899e-03	2.596434e-02	
67	1.028354e-03	3.309146e-02	
68	1.037265e-03	4.722396e-02	
69	1.055088e-03	7.500884e-02	
70	1.075088e-03	1.054403e-01	
71	1.095088e-03	1.350993e-01	
72	1.115088e-03	1.640056e-01	
73	1.135088e-03	1.921782e-01	
74	1.155088e-03	2.196358e-01	
75	1.175088e-03	2.463964e-01	
76	1.195088e-03	2.724779e-01	
77	1.215088e-03	2.978974e-01	
78	1.235088e-03	3.226717e-01	
79	1.255088e-03	3.468172e-01	
80	1.275088e-03	3.703499e-01	
81	1.295088e-03	3.932853e-01	
82	1.315088e-03	4.156386e-01	
83	1.335088e-03	4.374246e-01	
84	1.355088e-03	4.586576e-01	
85	1.375088e-03	4.793517e-01	
86	1.395088e-03	4.995206e-01	
87	1.415088e-03	5.191775e-01	
88	1.435088e-03	5.383356e-01	
89	1.455088e-03	5.570074e-01	
90	1.475088e-03	5.752053e-01	
91	1.495088e-03	5.929413e-01	
92	1.515088e-03	6.102271e-01	
93	1.535088e-03	6.270743e-01	
94	1.555088e-03	6.434938e-01	
95	1.575088e-03	6.594966e-01	
96	1.595088e-03	6.750932e-01	
97	1.615088e-03	6.902940e-01	
98	1.635088e-03	7.051085e-01	
99	1.655088e-03	7.195414e-01	
100	1.675088e-03	7.335926e-01	
101	1.695088e-03	7.472617e-01	
102	1.715088e-03	7.605494e-01	
103	1.735088e-03	7.734569e-01	
104	1.755088e-03	7.859864e-01	
105	1.775088e-03	7.981407e-01	
106	1.795088e-03	8.099233e-01	
107	1.815088e-03	8.213382e-01	
108	1.835088e-03	8.323902e-01	
109	1.855088e-03	8.430843e-01	
110	1.875088e-03	8.534261e-01	
111	1.895088e-03	8.634217e-01	
112	1.915088e-03	8.730774e-01	

Index   time            v(vout)         
--------------------------------------------------------------------------------
113	1.935088e-03	8.823999e-01	
114	1.955088e-03	8.913961e-01	
115	1.975088e-03	9.000733e-01	
116	1.995088e-03	9.084388e-01	
117	2.015088e-03	9.165002e-01	
118	2.035088e-03	9.242652e-01	
119	2.055088e-03	9.317414e-01	
120	2.075088e-03	9.389367e-01	
121	2.095088e-03	9.458590e-01	
122	2.115088e-03	9.525162e-01	
123	2.135088e-03	9.589160e-01	
124	2.155088e-03	9.650664e-01	
125	2.175088e-03	9.709750e-01	
126	2.195088e-03	9.766496e-01	
127	2.215088e-03	9.820977e-01	
128	2.235088e-03	9.873268e-01	
129	2.255088e-03	9.923444e-01	
130	2.275088e-03	9.971577e-01	
131	2.295088e-03	1.001774e+00	
132	2.315088e-03	1.006199e+00	
133	2.335088e-03	1.010442e+00	
134	2.355088e-03	1.014508e+00	
135	2.375088e-03	1.018403e+00	
136	2.395088e-03	1.022134e+00	
137	2.415088e-03	1.025708e+00	
138	2.435088e-03	1.029130e+00	
139	2.455088e-03	1.032407e+00	
140	2.475088e-03	1.035542e+00	
141	2.495088e-03	1.038544e+00	
142	2.515088e-03	1.041416e+00	
143	2.535088e-03	1.044163e+00	
144	2.555088e-03	1.046791e+00	
145	2.575088e-03	1.049305e+00	
146	2.595088e-03	1.051709e+00	
147	2.615088e-03	1.054008e+00	
148	2.635088e-03	1.056206e+00	
149	2.655088e-03	1.058307e+00	
150	2.675088e-03	1.060315e+00	
151	2.695088e-03	1.062235e+00	
152	2.715088e-03	1.064069e+00	
153	2.735088e-03	1.065822e+00	
154	2.755088e-03	1.067497e+00	
155	2.775088e-03	1.069097e+00	
156	2.795088e-03	1.070625e+00	
157	2.815088e-03	1.072085e+00	
158	2.835088e-03	1.073480e+00	
159	2.855088e-03	1.074812e+00	
160	2.875088e-03	1.076084e+00	
161	2.895088e-03	1.077298e+00	
162	2.915088e-03	1.078458e+00	
163	2.935088e-03	1.079566e+00	
164	2.955088e-03	1.080623e+00	
165	2.975088e-03	1.081633e+00	
166	2.995088e-03	1.082596e+00	
167	3.015088e-03	1.083516e+00	
168	3.035088e-03	1.084394e+00	
169	3.055088e-03	1.085233e+00	
170	3.075088e-03	1.086033e+00	

Index   time            v(vout)         
--------------------------------------------------------------------------------
171	3.095088e-03	1.086796e+00	
172	3.115088e-03	1.087525e+00	
173	3.135088e-03	1.088220e+00	
174	3.155088e-03	1.088884e+00	
175	3.175088e-03	1.089517e+00	
176	3.195088e-03	1.090122e+00	
177	3.215088e-03	1.090698e+00	
178	3.235088e-03	1.091249e+00	
179	3.255088e-03	1.091774e+00	
180	3.275088e-03	1.092275e+00	
181	3.295088e-03	1.092753e+00	
182	3.315088e-03	1.093209e+00	
183	3.335088e-03	1.093644e+00	
184	3.355088e-03	1.094059e+00	
185	3.375088e-03	1.094455e+00	
186	3.395088e-03	1.094833e+00	
187	3.415088e-03	1.095193e+00	
188	3.435088e-03	1.095537e+00	
189	3.455088e-03	1.095865e+00	
190	3.475088e-03	1.096178e+00	
191	3.495088e-03	1.096476e+00	
192	3.515088e-03	1.096761e+00	
193	3.535088e-03	1.097032e+00	
194	3.555088e-03	1.097291e+00	
195	3.575088e-03	1.097538e+00	
196	3.595088e-03	1.097774e+00	
197	3.615088e-03	1.097999e+00	
198	3.635088e-03	1.098213e+00	
199	3.655088e-03	1.098417e+00	
200	3.675088e-03	1.098612e+00	
201	3.695088e-03	1.098798e+00	
202	3.715088e-03	1.098976e+00	
203	3.735088e-03	1.099145e+00	
204	3.755088e-03	1.099306e+00	
205	3.775088e-03	1.099460e+00	
206	3.795088e-03	1.099607e+00	
207	3.815088e-03	1.099747e+00	
208	3.835088e-03	1.099881e+00	
209	3.855088e-03	1.100008e+00	
210	3.875088e-03	1.100129e+00	
211	3.895088e-03	1.100245e+00	
212	3.915088e-03	1.100356e+00	
213	3.935088e-03	1.100461e+00	
214	3.955088e-03	1.100561e+00	
215	3.975088e-03	1.100657e+00	
216	3.995088e-03	1.100749e+00	
217	4.015088e-03	1.100836e+00	
218	4.035088e-03	1.100919e+00	
219	4.055088e-03	1.100998e+00	
220	4.075088e-03	1.101074e+00	
221	4.095088e-03	1.101146e+00	
222	4.115088e-03	1.101214e+00	
223	4.135088e-03	1.101280e+00	
224	4.155088e-03	1.101342e+00	
225	4.175088e-03	1.101402e+00	
226	4.195088e-03	1.101459e+00	
227	4.215088e-03	1.101513e+00	
228	4.235088e-03	1.101565e+00	

Index   time            v(vout)         
--------------------------------------------------------------------------------
229	4.255088e-03	1.101614e+00	
230	4.275088e-03	1.101661e+00	
231	4.295088e-03	1.101706e+00	
232	4.315088e-03	1.101749e+00	
233	4.335088e-03	1.101789e+00	
234	4.355088e-03	1.101828e+00	
235	4.375088e-03	1.101865e+00	
236	4.395088e-03	1.101901e+00	
237	4.415088e-03	1.101934e+00	
238	4.435088e-03	1.101967e+00	
239	4.455088e-03	1.101997e+00	
240	4.475088e-03	1.102027e+00	
241	4.495088e-03	1.102054e+00	
242	4.515088e-03	1.102081e+00	
243	4.535088e-03	1.102106e+00	
244	4.555088e-03	1.102130e+00	
245	4.575088e-03	1.102154e+00	
246	4.595088e-03	1.102176e+00	
247	4.615088e-03	1.102196e+00	
248	4.635088e-03	1.102216e+00	
249	4.655088e-03	1.102236e+00	
250	4.675088e-03	1.102254e+00	
251	4.695088e-03	1.102271e+00	
252	4.715088e-03	1.102288e+00	
253	4.735088e-03	1.102303e+00	
254	4.755088e-03	1.102318e+00	
255	4.775088e-03	1.102333e+00	
256	4.795088e-03	1.102346e+00	
257	4.815088e-03	1.102359e+00	
258	4.835088e-03	1.102372e+00	
259	4.855088e-03	1.102384e+00	
260	4.875088e-03	1.102395e+00	
261	4.895088e-03	1.102406e+00	
262	4.915088e-03	1.102416e+00	
263	4.935088e-03	1.102426e+00	
264	4.955088e-03	1.102435e+00	
265	4.975088e-03	1.102444e+00	
266	4.995088e-03	1.102453e+00	
267	5.015088e-03	1.102461e+00	
268	5.020000e-03	1.102463e+00	
269	5.022000e-03	1.102463e+00	
270	5.026000e-03	1.102464e+00	
271	5.034000e-03	1.096825e+00	
272	5.040000e-03	1.088399e+00	
273	5.041600e-03	1.086165e+00	
274	5.044800e-03	1.081707e+00	
275	5.051200e-03	1.072845e+00	
276	5.064000e-03	1.055338e+00	
277	5.084000e-03	1.028553e+00	
278	5.104000e-03	1.002447e+00	
279	5.124000e-03	9.770041e-01	
280	5.144000e-03	9.522069e-01	
281	5.164000e-03	9.280391e-01	
282	5.184000e-03	9.044847e-01	
283	5.204000e-03	8.815281e-01	
284	5.224000e-03	8.591542e-01	
285	5.244000e-03	8.373481e-01	
286	5.264000e-03	8.160955e-01	

Index   time            v(vout)         
--------------------------------------------------------------------------------
287	5.284000e-03	7.953823e-01	
288	5.304000e-03	7.751949e-01	
289	5.324000e-03	7.555198e-01	
290	5.344000e-03	7.363441e-01	
291	5.364000e-03	7.176550e-01	
292	5.384000e-03	6.994403e-01	
293	5.404000e-03	6.816880e-01	
294	5.424000e-03	6.643861e-01	
295	5.444000e-03	6.475235e-01	
296	5.464000e-03	6.310888e-01	
297	5.484000e-03	6.150712e-01	
298	5.504000e-03	5.994602e-01	
299	5.524000e-03	5.842454e-01	
300	5.544000e-03	5.694168e-01	
301	5.564000e-03	5.549645e-01	
302	5.584000e-03	5.408790e-01	
303	5.604000e-03	5.271511e-01	
304	5.624000e-03	5.137715e-01	
305	5.644000e-03	5.007316e-01	
306	5.664000e-03	4.880226e-01	
307	5.684000e-03	4.756362e-01	
308	5.704000e-03	4.635641e-01	
309	5.724000e-03	4.517985e-01	
310	5.744000e-03	4.403315e-01	
311	5.764000e-03	4.291555e-01	
312	5.784000e-03	4.182631e-01	
313	5.804000e-03	4.076473e-01	
314	5.824000e-03	3.973008e-01	
315	5.844000e-03	3.872170e-01	
316	5.864000e-03	3.773891e-01	
317	5.884000e-03	3.678107e-01	
318	5.904000e-03	3.584753e-01	
319	5.924000e-03	3.493769e-01	
320	5.944000e-03	3.405094e-01	
321	5.964000e-03	3.318670e-01	
322	5.984000e-03	3.234440e-01	
323	6.004000e-03	3.152347e-01	
324	6.024000e-03	3.072338e-01	
325	6.044000e-03	2.994359e-01	
326	6.064000e-03	2.918360e-01	
327	6.084000e-03	2.844289e-01	
328	6.104000e-03	2.772099e-01	
329	6.124000e-03	2.701741e-01	
330	6.144000e-03	2.633168e-01	
331	6.164000e-03	2.566336e-01	
332	6.184000e-03	2.501201e-01	
333	6.204000e-03	2.437718e-01	
334	6.224000e-03	2.375847e-01	
335	6.244000e-03	2.315546e-01	
336	6.264000e-03	2.256775e-01	
337	6.284000e-03	2.199496e-01	
338	6.304000e-03	2.143671e-01	
339	6.324000e-03	2.089263e-01	
340	6.344000e-03	2.036236e-01	
341	6.364000e-03	1.984555e-01	
342	6.384000e-03	1.934185e-01	
343	6.404000e-03	1.885094e-01	
344	6.424000e-03	1.837248e-01	

Index   time            v(vout)         
--------------------------------------------------------------------------------
345	6.444000e-03	1.790617e-01	
346	6.464000e-03	1.745170e-01	
347	6.484000e-03	1.700876e-01	
348	6.504000e-03	1.657707e-01	
349	6.524000e-03	1.615633e-01	
350	6.544000e-03	1.574626e-01	
351	6.564000e-03	1.534661e-01	
352	6.584000e-03	1.495710e-01	
353	6.604000e-03	1.457748e-01	
354	6.624000e-03	1.420749e-01	
355	6.644000e-03	1.384689e-01	
356	6.664000e-03	1.349545e-01	
357	6.684000e-03	1.315292e-01	
358	6.704000e-03	1.281909e-01	
359	6.724000e-03	1.249373e-01	
360	6.744000e-03	1.217663e-01	
361	6.764000e-03	1.186757e-01	
362	6.784000e-03	1.156637e-01	
363	6.804000e-03	1.127280e-01	
364	6.824000e-03	1.098669e-01	
365	6.844000e-03	1.070784e-01	
366	6.864000e-03	1.043606e-01	
367	6.884000e-03	1.017119e-01	
368	6.904000e-03	9.913034e-02	
369	6.924000e-03	9.661433e-02	
370	6.944000e-03	9.416217e-02	
371	6.964000e-03	9.177226e-02	
372	6.984000e-03	8.944300e-02	
373	7.004000e-03	8.717286e-02	
374	7.024000e-03	8.496034e-02	
375	7.044000e-03	8.280398e-02	
376	7.064000e-03	8.070234e-02	
377	7.084000e-03	7.865405e-02	
378	7.104000e-03	7.665775e-02	
379	7.124000e-03	7.471211e-02	
380	7.144000e-03	7.281585e-02	
381	7.164000e-03	7.096772e-02	
382	7.184000e-03	6.916650e-02	
383	7.204000e-03	6.741100e-02	
384	7.224000e-03	6.570005e-02	
385	7.244000e-03	6.403253e-02	
386	7.264000e-03	6.240733e-02	
387	7.284000e-03	6.082338e-02	
388	7.304000e-03	5.927963e-02	
389	7.324000e-03	5.777507e-02	
390	7.344000e-03	5.630869e-02	
391	7.364000e-03	5.487953e-02	
392	7.384000e-03	5.348664e-02	
393	7.404000e-03	5.212910e-02	
394	7.424000e-03	5.080602e-02	
395	7.444000e-03	4.951652e-02	
396	7.464000e-03	4.825975e-02	
397	7.484000e-03	4.703488e-02	
398	7.504000e-03	4.584109e-02	
399	7.524000e-03	4.467761e-02	
400	7.544000e-03	4.354365e-02	
401	7.564000e-03	4.243848e-02	
402	7.584000e-03	4.136135e-02	

Index   time            v(vout)         
--------------------------------------------------------------------------------
403	7.604000e-03	4.031157e-02	
404	7.624000e-03	3.928843e-02	
405	7.644000e-03	3.829125e-02	
406	7.664000e-03	3.731939e-02	
407	7.684000e-03	3.637219e-02	
408	7.704000e-03	3.544904e-02	
409	7.724000e-03	3.454931e-02	
410	7.744000e-03	3.367242e-02	
411	7.764000e-03	3.281779e-02	
412	7.784000e-03	3.198484e-02	
413	7.804000e-03	3.117304e-02	
414	7.824000e-03	3.038184e-02	
415	7.844000e-03	2.961073e-02	
416	7.864000e-03	2.885918e-02	
417	7.884000e-03	2.812671e-02	
418	7.904000e-03	2.741283e-02	
419	7.924000e-03	2.671707e-02	
420	7.944000e-03	2.603897e-02	
421	7.964000e-03	2.537808e-02	
422	7.984000e-03	2.473396e-02	
423	8.004000e-03	2.410619e-02	
424	8.024000e-03	2.349436e-02	
425	8.044000e-03	2.289805e-02	
426	8.064000e-03	2.231688e-02	
427	8.084000e-03	2.175046e-02	
428	8.104000e-03	2.119841e-02	
429	8.124000e-03	2.066038e-02	
430	8.144000e-03	2.013600e-02	
431	8.164000e-03	1.962493e-02	
432	8.184000e-03	1.912684e-02	
433	8.204000e-03	1.864138e-02	
434	8.224000e-03	1.816825e-02	
435	8.244000e-03	1.770712e-02	
436	8.264000e-03	1.725770e-02	
437	8.284000e-03	1.681969e-02	
438	8.304000e-03	1.639279e-02	
439	8.324000e-03	1.597673e-02	
440	8.344000e-03	1.557122e-02	
441	8.364000e-03	1.517601e-02	
442	8.384000e-03	1.479083e-02	
443	8.404000e-03	1.441543e-02	
444	8.424000e-03	1.404955e-02	
445	8.444000e-03	1.369296e-02	
446	8.464000e-03	1.334542e-02	
447	8.484000e-03	1.300671e-02	
448	8.504000e-03	1.267659e-02	
449	8.524000e-03	1.235484e-02	
450	8.544000e-03	1.204127e-02	
451	8.564000e-03	1.173565e-02	
452	8.584000e-03	1.143779e-02	
453	8.604000e-03	1.114749e-02	
454	8.624000e-03	1.086456e-02	
455	8.644000e-03	1.058880e-02	
456	8.664000e-03	1.032005e-02	
457	8.684000e-03	1.005812e-02	
458	8.704000e-03	9.802836e-03	
459	8.724000e-03	9.554032e-03	
460	8.744000e-03	9.311543e-03	

Index   time            v(vout)         
--------------------------------------------------------------------------------
461	8.764000e-03	9.075208e-03	
462	8.784000e-03	8.844871e-03	
463	8.804000e-03	8.620381e-03	
464	8.824000e-03	8.401589e-03	
465	8.844000e-03	8.188349e-03	
466	8.864000e-03	7.980522e-03	
467	8.884000e-03	7.777970e-03	
468	8.904000e-03	7.580558e-03	
469	8.924000e-03	7.388158e-03	
470	8.944000e-03	7.200640e-03	
471	8.964000e-03	7.017882e-03	
472	8.984000e-03	6.839762e-03	
473	9.000000e-03	6.700529e-03	
474	9.002000e-03	6.683349e-03	
475	9.006000e-03	6.649075e-03	
476	9.010727e-03	1.046973e-02	
477	9.015345e-03	1.794631e-02	
478	9.020000e-03	2.543794e-02	
479	9.020924e-03	2.691854e-02	
480	9.022771e-03	2.987600e-02	
481	9.026465e-03	3.576946e-02	
482	9.033853e-03	4.747288e-02	
483	9.048630e-03	7.054941e-02	
484	9.068630e-03	1.010940e-01	
485	9.088630e-03	1.308634e-01	
486	9.108630e-03	1.598772e-01	
487	9.128630e-03	1.881546e-01	
488	9.148630e-03	2.157142e-01	
489	9.168630e-03	2.425744e-01	
490	9.188630e-03	2.687529e-01	
491	9.208630e-03	2.942669e-01	
492	9.228630e-03	3.191334e-01	
493	9.248630e-03	3.433688e-01	
494	9.268630e-03	3.669890e-01	
495	9.288630e-03	3.900097e-01	
496	9.308630e-03	4.124461e-01	
497	9.328630e-03	4.343131e-01	
498	9.348630e-03	4.556251e-01	
499	9.368630e-03	4.763962e-01	
500	9.388630e-03	4.966400e-01	
501	9.408630e-03	5.163701e-01	
502	9.428630e-03	5.355994e-01	
503	9.448630e-03	5.543406e-01	
504	9.468630e-03	5.726062e-01	
505	9.488630e-03	5.904082e-01	
506	9.508630e-03	6.077584e-01	
507	9.528630e-03	6.246682e-01	
508	9.548630e-03	6.411488e-01	
509	9.568630e-03	6.572111e-01	
510	9.588630e-03	6.728657e-01	
511	9.608630e-03	6.881230e-01	
512	9.628630e-03	7.029929e-01	
513	9.648630e-03	7.174809e-01	
514	9.668630e-03	7.315872e-01	
515	9.688630e-03	7.453115e-01	
516	9.708630e-03	7.586542e-01	
517	9.728630e-03	7.716165e-01	
518	9.748630e-03	7.842004e-01	

Index   time            v(vout)         
--------------------------------------------------------------------------------
519	9.768630e-03	7.964087e-01	
520	9.788630e-03	8.082447e-01	
521	9.808630e-03	8.197125e-01	
522	9.828630e-03	8.308165e-01	
523	9.848630e-03	8.415619e-01	
524	9.868630e-03	8.519543e-01	
525	9.888630e-03	8.619995e-01	
526	9.908630e-03	8.717039e-01	
527	9.928630e-03	8.810740e-01	
528	9.948630e-03	8.901170e-01	
529	9.968630e-03	8.988398e-01	
530	9.988630e-03	9.072498e-01	
531	1.000863e-02	9.153547e-01	
532	1.002863e-02	9.231619e-01	
533	1.004863e-02	9.306793e-01	
534	1.006863e-02	9.379148e-01	
535	1.008863e-02	9.448760e-01	
536	1.010863e-02	9.515710e-01	
537	1.012863e-02	9.580075e-01	
538	1.014863e-02	9.641934e-01	
539	1.016863e-02	9.701364e-01	
540	1.018863e-02	9.758443e-01	
541	1.020863e-02	9.813247e-01	
542	1.022863e-02	9.865850e-01	
543	1.024863e-02	9.916327e-01	
544	1.026863e-02	9.964750e-01	
545	1.028863e-02	1.001119e+00	
546	1.030863e-02	1.005572e+00	
547	1.032863e-02	1.009840e+00	
548	1.034863e-02	1.013931e+00	
549	1.036863e-02	1.017851e+00	
550	1.038863e-02	1.021606e+00	
551	1.040863e-02	1.025202e+00	
552	1.042863e-02	1.028645e+00	
553	1.044863e-02	1.031942e+00	
554	1.046863e-02	1.035098e+00	
555	1.048863e-02	1.038118e+00	
556	1.050863e-02	1.041009e+00	
557	1.052863e-02	1.043774e+00	
558	1.054863e-02	1.046419e+00	
559	1.056863e-02	1.048949e+00	
560	1.058863e-02	1.051369e+00	
561	1.060863e-02	1.053683e+00	
562	1.062863e-02	1.055895e+00	
563	1.064863e-02	1.058009e+00	
564	1.066863e-02	1.060031e+00	
565	1.068863e-02	1.061963e+00	
566	1.070863e-02	1.063809e+00	
567	1.072863e-02	1.065574e+00	
568	1.074863e-02	1.067259e+00	
569	1.076863e-02	1.068870e+00	
570	1.078863e-02	1.070409e+00	
571	1.080863e-02	1.071879e+00	
572	1.082863e-02	1.073282e+00	
573	1.084863e-02	1.074623e+00	
574	1.086863e-02	1.075904e+00	
575	1.088863e-02	1.077126e+00	
576	1.090863e-02	1.078294e+00	

Index   time            v(vout)         
--------------------------------------------------------------------------------
577	1.092863e-02	1.079409e+00	
578	1.094863e-02	1.080473e+00	
579	1.096863e-02	1.081490e+00	
580	1.098863e-02	1.082460e+00	
581	1.100863e-02	1.083386e+00	
582	1.102863e-02	1.084270e+00	
583	1.104863e-02	1.085114e+00	
584	1.106863e-02	1.085919e+00	
585	1.108863e-02	1.086688e+00	
586	1.110863e-02	1.087422e+00	
587	1.112863e-02	1.088122e+00	
588	1.114863e-02	1.088790e+00	
589	1.116863e-02	1.089428e+00	
590	1.118863e-02	1.090036e+00	
591	1.120863e-02	1.090617e+00	
592	1.122863e-02	1.091171e+00	
593	1.124863e-02	1.091699e+00	
594	1.126863e-02	1.092204e+00	
595	1.128863e-02	1.092685e+00	
596	1.130863e-02	1.093144e+00	
597	1.132863e-02	1.093582e+00	
598	1.134863e-02	1.094000e+00	
599	1.136863e-02	1.094399e+00	
600	1.138863e-02	1.094779e+00	
601	1.140863e-02	1.095142e+00	
602	1.142863e-02	1.095488e+00	
603	1.144863e-02	1.095818e+00	
604	1.146863e-02	1.096133e+00	
605	1.148863e-02	1.096434e+00	
606	1.150863e-02	1.096720e+00	
607	1.152863e-02	1.096994e+00	
608	1.154863e-02	1.097254e+00	
609	1.156863e-02	1.097503e+00	
610	1.158863e-02	1.097740e+00	
611	1.160863e-02	1.097967e+00	
612	1.162863e-02	1.098183e+00	
613	1.164863e-02	1.098388e+00	
614	1.166863e-02	1.098585e+00	
615	1.168863e-02	1.098772e+00	
616	1.170863e-02	1.098951e+00	
617	1.172863e-02	1.099121e+00	
618	1.174863e-02	1.099284e+00	
619	1.176863e-02	1.099439e+00	
620	1.178863e-02	1.099586e+00	
621	1.180863e-02	1.099727e+00	
622	1.182863e-02	1.099862e+00	
623	1.184863e-02	1.099990e+00	
624	1.186863e-02	1.100112e+00	
625	1.188863e-02	1.100229e+00	
626	1.190863e-02	1.100340e+00	
627	1.192863e-02	1.100446e+00	
628	1.194863e-02	1.100547e+00	
629	1.196863e-02	1.100644e+00	
630	1.198863e-02	1.100736e+00	
631	1.200000e-02	1.100786e+00	
ngspice-44.2 done
